
BEGIN options
  auxiliary  bot  top
  BOUNDNAMES
  SAVE_FLOWS
  OBS6  FILEIN  flow.ghb3.obs
END options

BEGIN dimensions
  MAXBOUND  70
END dimensions

BEGIN period  1
  1 478     445.797100       253.290210    -140.34507000     460.13311768  southwest_ghb
  1 924     447.336901       258.998545    -152.25064000     461.76040649  southwest_ghb
  1 926     449.093736       262.657805    -156.62399000     466.06213379  southwest_ghb
  1 1116     450.857103       263.646555    -144.16940000     480.86071777  southwest_ghb
  1 1118     452.627552       259.852882    -141.35515000     474.68124390  southwest_ghb
  1 1242     454.021616       306.408360    -243.88838000     482.51757812  southwest_ghb
  1 1243     454.925608       314.935977    -261.32289000     485.29959106  southwest_ghb
  1 1322     456.268282       347.247218    -328.43538000     494.78781128  southwest_ghb
  1 1324     457.008144       285.013036    -166.39791000     509.28598022  southwest_ghb
  1 1399     457.677764       296.580209    -189.66962000     513.43676758  southwest_ghb
  1 1400     458.129755       327.308931    -244.66625000     531.28900146  southwest_ghb
  1 1473     458.800768       269.091156    -104.54027000     533.39739990  southwest_ghb
  1 1475     459.654149       298.950929    -166.45905000     542.26757812  southwest_ghb
  1 1534     460.557380       312.943701    -175.31719000     566.58227539  southwest_ghb
  1 1536     461.898548       332.219222    -256.22299000     531.37316895  southwest_ghb
  1 1578     462.806007       324.275656    -246.06859000     522.69561768  southwest_ghb
  1 1579     462.654481       284.555877    -170.53922000     504.06088257  southwest_ghb
  1 1623     462.319249       271.625682    -144.36294000     499.58337402  southwest_ghb
  1 1625     461.984407       274.838757    -157.53626000     494.02734375  southwest_ghb
  1 1666     461.758141       254.793297    -110.66495000     493.37661743  southwest_ghb
  1 1669     461.423074       236.872234     -70.12850700     491.42739868  southwest_ghb
  1 1709     461.088040       370.997068    -387.36327000     492.16400146  southwest_ghb
  1 1710     460.857801       271.625877    -150.71640000     493.23037720  southwest_ghb
  1 1759     460.858137       548.716236    -810.88136000     489.96704102  southwest_ghb
  1 1761     460.857716       534.029785    -776.62485000     489.40603638  southwest_ghb
  1 1805     460.857842       325.509729    -273.75285000     497.93704224  southwest_ghb
  1 1807     460.303295       419.752257    -503.91736000     491.19445801  southwest_ghb
  1 1852     458.282762       459.511827    -597.22589000     492.14428711  southwest_ghb
  1 1853     456.929992       498.200429    -690.12825000     490.96157837  southwest_ghb
  1 1854     455.580902       525.660656    -758.11042000     488.07971191  southwest_ghb
  1 1856     453.989287       378.830602    -408.71111000     489.38723755  southwest_ghb
  1 1859     453.085336       355.974893    -357.65284000     486.26119995  southwest_ghb
  1 1899     451.744315       352.466171    -339.38118000     496.21475220  southwest_ghb
  1 1900     450.844503       347.381442    -327.12116000     496.42025757  southwest_ghb
  1 1902     447.504549       347.062786    -322.41173000     500.37426758  southwest_ghb
  1 1905     445.245053       493.255194    -675.59071000     493.77536011  southwest_ghb
  1 1906     442.997167       581.910535    -890.00710000     489.53527832  southwest_ghb
  1 1945     439.317619       443.100050    -557.76154000     492.70114136  southwest_ghb
  1 1946     436.336326       449.719054    -569.66204000     496.49240112  southwest_ghb
  1 1947     433.375323       321.090741    -262.58158000     498.63217163  southwest_ghb
  1 1949     429.061482       259.299862    -100.00000000     514.72540283  southwest_ghb
  1 1952     426.469823       268.904115    -133.89811000     503.59616089  southwest_ghb
  1 1953     424.313947       299.766637    -213.10780000     497.55267334  southwest_ghb
  1 1956     422.168321       435.281838    -543.46865000     488.45922852  southwest_ghb
  1 1988     419.330966       340.363147    -317.99056000     488.91250610  southwest_ghb
  1 1989     416.499135       430.329126    -544.48787000     475.69860840  southwest_ghb
  1 1990     413.379796       530.406828    -789.68424000     467.75765991  southwest_ghb
  1 1993     409.265474       490.161721    -697.58696000     464.44543457  southwest_ghb
  1 1994     406.200366       431.257174    -561.02499000     461.36169434  southwest_ghb
  1 1997     403.673498       396.783239    -482.01525000     458.64358521  southwest_ghb
  1 2026     400.490616       354.332462    -384.39959000     455.62069702  southwest_ghb
  1 2027     398.115068       418.366545    -537.43589000     454.39077759  southwest_ghb
  1 2029     394.969100       403.214281    -500.67589000     455.22912598  southwest_ghb
  1 2032     392.583814       417.572362    -540.53544000     449.40844727  southwest_ghb
  1 2033     390.213019       460.513097    -644.54943000     447.19461060  southwest_ghb
  1 2062     386.972398       413.352072    -534.52727000     445.41149902  southwest_ghb
  1 2063     385.410933       496.726715    -732.19893000     445.39712524  southwest_ghb
  1 2066     383.991765       416.838628    -539.57549000     448.62902832  southwest_ghb
  1 2091     383.341513       403.760310    -503.99209000     453.20739746  southwest_ghb
  1 2093     381.929661       413.543995    -521.71606000     458.67773438  southwest_ghb
  1 2122     379.996304       397.058210    -476.49134000     464.81939697  southwest_ghb
  1 2124     377.871086       350.967175    -350.91665000     481.12548828  southwest_ghb
  1 2127     376.726946       446.811973    -583.61008000     475.65261841  southwest_ghb
  1 2153     374.605405       529.835815    -767.79808000     488.29016113  southwest_ghb
  1 2156     372.476514       343.160479    -317.04539000     496.48931885  southwest_ghb
  1 2157     371.330488       329.705053    -297.13242000     484.50344849  southwest_ghb
  1 2181     369.261607       410.577514    -470.98470000     502.37643433  southwest_ghb
  1 2183     367.485855       550.675499    -837.81740000     467.67575073  southwest_ghb
  1 2216     365.718625       733.595077   -1276.25810000     462.88473511  southwest_ghb
  1 2218     364.469220       584.535004    -932.85221000     452.91204834  southwest_ghb
END period  1

