
BEGIN options
  auxiliary  bot  top
  BOUNDNAMES
  SAVE_FLOWS
  OBS6  FILEIN  flow.ghb4.obs
END options

BEGIN dimensions
  MAXBOUND  32
END dimensions

BEGIN period  1
  1 2149     303.102237       48.4794034    -983.85906000     335.70336914  southern_ghb
  1 2151     301.980600       48.1420233    -986.21487000     324.16439819  southern_ghb
  1 2152     301.980600       45.4060128    -799.33163000     436.57608032  southern_ghb
  1 2179     307.285747       49.6012272    -985.08273000     365.01455688  southern_ghb
  1 2180     305.186843       51.2762833   -1044.56930000     351.12149048  southern_ghb
  1 2199     335.220091       35.7286942    -572.81162000     399.68875122  southern_ghb
  1 2200     333.574079       24.2522583    -261.73585000     398.38720703  southern_ghb
  1 2202     329.794700       53.6195084   -1051.42680000     408.04431152  southern_ghb
  1 2203     331.935920       24.6885753    -282.27313000     389.72592163  southern_ghb
  1 2204     327.313338       47.3621662    -911.63351000     377.51867676  southern_ghb
  1 2205     324.820175       34.6839751    -573.95457000     370.10928345  southern_ghb
  1 2206     322.346393       40.2518680    -714.83557000     380.78131104  southern_ghb
  1 2207     319.891255       43.8479312    -729.98020000     463.51809692  southern_ghb
  1 2208     318.875308       25.5944773    -224.22076000     472.43606567  southern_ghb
  1 2209     317.880426       27.7498641    -345.22208000     410.10235596  southern_ghb
  1 2210     316.888594       31.1064944    -467.07752000     379.61114502  southern_ghb
  1 2211     315.899867       33.7777657    -558.22763000     361.17047119  southern_ghb
  1 2213     311.776238       50.1418948   -1003.47860000     361.33523560  southern_ghb
  1 2214     314.170541       37.3917307    -655.65812000     362.10864258  southern_ghb
  1 2215     309.744289       49.5198587    -957.52089000     390.36172485  southern_ghb
  1 2221     354.036662       26.8989657    -278.93557000     453.22827148  southern_ghb
  1 2222     352.790456       22.4635873    -167.70016000     443.73693848  southern_ghb
  1 2225     351.548666       22.9370010    -186.34756000     437.97540283  southern_ghb
  1 2226     350.311249       25.0679215    -195.68335000     486.64120483  southern_ghb
  1 2229     349.065376       31.0337236    -364.62117000     480.08670044  southern_ghb
  1 2230     347.811750       38.4616216    -558.08705000     488.80105591  southern_ghb
  1 2233     346.562597       28.5027626    -310.90574000     464.91186523  southern_ghb
  1 2234     345.317960       27.7141469    -300.60482000     453.74746704  southern_ghb
  1 2235     343.144499       18.0159529     -58.50250400     431.87426758  southern_ghb
  1 2236     341.271640       32.7467143    -471.46402000     419.86984253  southern_ghb
  1 2237     339.409031       17.4628373     -63.83085000     411.49072266  southern_ghb
  1 2238     337.556501       41.0953743    -711.06696000     407.50939941  southern_ghb
END period  1

