# File generated by Flopy version 3.3.5 on 06/07/2022 at 09:17:13.
BEGIN options
  BOUNDNAMES
  PRINT_INPUT
  PRINT_FLOWS
  SAVE_FLOWS
END options

BEGIN dimensions
  MAXBOUND  3
END dimensions

BEGIN period  2
  1 378   -7760.00000000  pbore_378
  1 658   -7760.00000000  pbore_658
  1 759   -7760.00000000  pbore_759
END period  2

BEGIN period  26
  1 378       0.00000000  pbore_378
  1 658       0.00000000  pbore_658
  1 759       0.00000000  pbore_759
END period  26

