# File generated by Flopy version 3.3.5 on 05/31/2022 at 13:01:31.
BEGIN options
  DIGITS  10
  PRINT_INPUT
END options

BEGIN continuous  FILEOUT  ghb6_obs.csv
  divide  GHB  divide_ghb
END continuous  FILEOUT  ghb6_obs.csv

