# File generated by Flopy version 3.3.5 on 05/31/2022 at 13:01:31.
BEGIN options
  BUDGET  FILEOUT  flow.cbb
  HEAD  FILEOUT  flow.hds
  HEAD  PRINT_FORMAT  COLUMNS  10  WIDTH  15  DIGITS  6  GENERAL
END options

BEGIN period  1
  SAVE  HEAD  LAST
  SAVE  BUDGET  LAST
  PRINT  BUDGET  LAST
END period  1

