# File generated by Flopy version 3.3.5 on 05/31/2022 at 13:01:31.
BEGIN options
  SAVE_FLOWS
END options

BEGIN griddata
  iconvert
    CONSTANT  1
  ss
    INTERNAL  FACTOR  1.0  IPRN  1
    1.00000000E-05  1.00000000E-05  1.00000000E-05  1.00000000E-05  1.00000000E-05  1.00000000E-05  1.00000000E-05  1.00000000E-05  1.00000000E-05  1.00000000E-05  1.00000000E-05  1.00000000E-05  1.00000000E-05  1.00000000E-05  1.00000000E-05  1.00000000E-05  1.00000000E-05  1.00000000E-05  1.00000000E-05  1.00000000E-05
    1.00000000E-05  1.00000000E-05  1.00000000E-05  1.00000000E-05  1.00000000E-05  1.00000000E-05  1.00000000E-05  1.00000000E-05  1.00000000E-05  1.00000000E-05  1.00000000E-05  1.00000000E-05  1.00000000E-05  1.00000000E-05  1.00000000E-05  1.00000000E-05  1.00000000E-05  1.00000000E-05  1.00000000E-05  1.00000000E-05
    1.00000000E-05  1.00000000E-05  1.00000000E-05  1.00000000E-05  1.00000000E-05  1.00000000E-05  1.00000000E-05  1.00000000E-05  1.00000000E-05  1.00000000E-05  1.00000000E-05  1.00000000E-05  1.00000000E-05  1.00000000E-05  1.00000000E-05  1.00000000E-05  1.00000000E-05  1.00000000E-05  1.00000000E-05  1.00000000E-05
    1.00000000E-05  1.00000000E-05  1.00000000E-05  1.00000000E-05  1.00000000E-05  1.00000000E-05  1.00000000E-05  1.00000000E-05  1.00000000E-05  1.00000000E-05  1.00000000E-05  1.00000000E-05  1.00000000E-05  1.00000000E-05  1.00000000E-05  1.00000000E-05  1.00000000E-05  1.00000000E-05  1.00000000E-05  1.00000000E-05
    1.00000000E-05  1.00000000E-05  1.00000000E-05  1.00000000E-05  1.00000000E-05  1.00000000E-05  1.00000000E-05  1.00000000E-05  1.00000000E-05  1.00000000E-05  1.00000000E-05  1.00000000E-05  1.00000000E-05  1.00000000E-05  1.00000000E-05  1.00000000E-05  1.00000000E-05  1.00000000E-05  1.00000000E-05  1.00000000E-05
    1.00000000E-05  1.00000000E-05  1.00000000E-05  1.00000000E-05  1.00000000E-05  1.00000000E-05  1.00000000E-05  1.00000000E-05  1.00000000E-05  1.00000000E-05  1.00000000E-05  1.00000000E-05  1.00000000E-05  1.00000000E-05  1.00000000E-05  1.00000000E-05  1.00000000E-05  1.00000000E-05  1.00000000E-05  1.00000000E-05
    1.00000000E-05  1.00000000E-05  1.00000000E-05  1.00000000E-05  1.00000000E-05  1.00000000E-05  1.00000000E-05  1.00000000E-05  1.00000000E-05  1.00000000E-05  1.00000000E-05  1.00000000E-05  1.00000000E-05  1.00000000E-05  1.00000000E-05  1.00000000E-05  1.00000000E-05  1.00000000E-05  1.00000000E-05  1.00000000E-05
    1.00000000E-05  1.00000000E-05  1.00000000E-05  1.00000000E-05  1.00000000E-05  1.00000000E-05  1.00000000E-05  1.00000000E-05  1.00000000E-05  1.00000000E-05  1.00000000E-05  1.00000000E-05  1.00000000E-05  1.00000000E-05  1.00000000E-05  1.00000000E-05  1.00000000E-05  1.00000000E-05  1.00000000E-05  1.00000000E-05
    1.00000000E-05  1.00000000E-05  1.00000000E-05  1.00000000E-05  1.00000000E-05  1.00000000E-05  1.00000000E-05  1.00000000E-05  1.00000000E-05  1.00000000E-05  1.00000000E-05  1.00000000E-05  1.00000000E-05  1.00000000E-05  1.00000000E-05  1.00000000E-05  1.00000000E-05  1.00000000E-05  1.00000000E-05  1.00000000E-05
    1.00000000E-05  1.00000000E-05  1.00000000E-05  1.00000000E-05  1.00000000E-05  1.00000000E-05  1.00000000E-05  1.00000000E-05  1.00000000E-05  1.00000000E-05  1.00000000E-05  1.00000000E-05  1.00000000E-05  1.00000000E-05  1.00000000E-05  1.00000000E-05  1.00000000E-05  1.00000000E-05  1.00000000E-05  1.00000000E-05
    1.00000000E-05  1.00000000E-05  1.00000000E-05  1.00000000E-05  1.00000000E-05  1.00000000E-05  1.00000000E-05  1.00000000E-05  1.00000000E-05  1.00000000E-05  1.00000000E-05  1.00000000E-05  1.00000000E-05  1.00000000E-05  1.00000000E-05  1.00000000E-05  1.00000000E-05  1.00000000E-05  1.00000000E-05  1.00000000E-05
    1.00000000E-05  1.00000000E-05  1.00000000E-05  1.00000000E-05  1.00000000E-05  1.00000000E-05  1.00000000E-05  1.00000000E-05  1.00000000E-05  1.00000000E-05  1.00000000E-05  1.00000000E-05  1.00000000E-05  1.00000000E-05  1.00000000E-05  1.00000000E-05  1.00000000E-05  1.00000000E-05  1.00000000E-05  1.00000000E-05
    1.00000000E-05  1.00000000E-05  1.00000000E-05  1.00000000E-05  1.00000000E-05  1.00000000E-05  1.00000000E-05  1.00000000E-05  1.00000000E-05  1.00000000E-05  1.00000000E-05  1.00000000E-05  1.00000000E-05  1.00000000E-05  1.00000000E-05  1.00000000E-05  1.00000000E-05  1.00000000E-05  1.00000000E-05  1.00000000E-05
    1.00000000E-05  1.00000000E-05  1.00000000E-05  1.00000000E-05  1.00000000E-05  1.00000000E-05  1.00000000E-05  1.00000000E-05  1.00000000E-05  1.00000000E-05  1.00000000E-05  1.00000000E-05  1.00000000E-05  1.00000000E-05  1.00000000E-05  1.00000000E-05  1.00000000E-05  1.00000000E-05  1.00000000E-05  1.00000000E-05
    1.00000000E-05  1.00000000E-05  1.00000000E-05  1.00000000E-05  1.00000000E-05  1.00000000E-05  1.00000000E-05  1.00000000E-05  1.00000000E-05  1.00000000E-05  1.00000000E-05  1.00000000E-05  1.00000000E-05  1.00000000E-05  1.00000000E-05  1.00000000E-05  1.00000000E-05  1.00000000E-05  1.00000000E-05  1.00000000E-05
    1.00000000E-05  1.00000000E-05  1.00000000E-05  1.00000000E-05  1.00000000E-05  1.00000000E-05  1.00000000E-05  1.00000000E-05  1.00000000E-05  1.00000000E-05  1.00000000E-05  1.00000000E-05  1.00000000E-05  1.00000000E-05  1.00000000E-05  1.00000000E-05  1.00000000E-05  1.00000000E-05  1.00000000E-05  1.00000000E-05
    1.00000000E-05  1.00000000E-05  1.00000000E-05  1.00000000E-05  1.00000000E-05  1.00000000E-05  1.00000000E-05  1.00000000E-05  1.00000000E-05  1.00000000E-05  1.00000000E-05  1.00000000E-05  1.00000000E-05  1.00000000E-05  1.00000000E-05  1.00000000E-05  1.00000000E-05  1.00000000E-05  1.00000000E-05  1.00000000E-05
    1.00000000E-05  1.00000000E-05  1.00000000E-05  1.00000000E-05  1.00000000E-05  1.00000000E-05  1.00000000E-05  1.00000000E-05  1.00000000E-05  1.00000000E-05  1.00000000E-05  1.00000000E-05  1.00000000E-05  1.00000000E-05  1.00000000E-05  1.00000000E-05  1.00000000E-05  1.00000000E-05  1.00000000E-05  1.00000000E-05
    1.00000000E-05  1.00000000E-05  1.00000000E-05  1.00000000E-05  1.00000000E-05  1.00000000E-05  1.00000000E-05  1.00000000E-05  1.00000000E-05  1.00000000E-05  1.00000000E-05  1.00000000E-05  1.00000000E-05  1.00000000E-05  1.00000000E-05  1.00000000E-05  1.00000000E-05  1.00000000E-05  1.00000000E-05  1.00000000E-05
    1.00000000E-05  1.00000000E-05  1.00000000E-05  1.00000000E-05  1.00000000E-05  1.00000000E-05  1.00000000E-05  1.00000000E-05  1.00000000E-05  1.00000000E-05  1.00000000E-05  1.00000000E-05  1.00000000E-05  1.00000000E-05  1.00000000E-05  1.00000000E-05  1.00000000E-05  1.00000000E-05  1.00000000E-05  1.00000000E-05
    1.00000000E-05  1.00000000E-05  1.00000000E-05  1.00000000E-05  1.00000000E-05  1.00000000E-05  1.00000000E-05  1.00000000E-05  1.00000000E-05  1.00000000E-05  1.00000000E-05  1.00000000E-05  1.00000000E-05  1.00000000E-05  1.00000000E-05  1.00000000E-05  1.00000000E-05  1.00000000E-05  1.00000000E-05  1.00000000E-05
    1.00000000E-05  1.00000000E-05  1.00000000E-05  1.00000000E-05  1.00000000E-05  1.00000000E-05  1.00000000E-05  1.00000000E-05  1.00000000E-05  1.00000000E-05  1.00000000E-05  1.00000000E-05  1.00000000E-05  1.00000000E-05  1.00000000E-05  1.00000000E-05  1.00000000E-05  1.00000000E-05  1.00000000E-05  1.00000000E-05
    1.00000000E-05  1.00000000E-05  1.00000000E-05  1.00000000E-05  1.00000000E-05  1.00000000E-05  1.00000000E-05  1.00000000E-05  1.00000000E-05  1.00000000E-05  1.00000000E-05  1.00000000E-05  1.00000000E-05  1.00000000E-05  1.00000000E-05  1.00000000E-05  1.00000000E-05  1.00000000E-05  1.00000000E-05  1.00000000E-05
    1.00000000E-05  1.00000000E-05  1.00000000E-05  1.00000000E-05  1.00000000E-05  1.00000000E-05  1.00000000E-05  1.00000000E-05  1.00000000E-05  1.00000000E-05  1.00000000E-05  1.00000000E-05  1.00000000E-05  1.00000000E-05  1.00000000E-05  1.00000000E-05  1.00000000E-05  1.00000000E-05  1.00000000E-05  1.00000000E-05
    1.00000000E-05  1.00000000E-05  1.00000000E-05  1.00000000E-05  1.00000000E-05  1.00000000E-05  1.00000000E-05  1.00000000E-05  1.00000000E-05  1.00000000E-05  1.00000000E-05  1.00000000E-05  1.00000000E-05  1.00000000E-05  1.00000000E-05  1.00000000E-05  1.00000000E-05  1.00000000E-05  1.00000000E-05  1.00000000E-05
    1.00000000E-05  1.00000000E-05  1.00000000E-05  1.00000000E-05  1.00000000E-05  1.00000000E-05  1.00000000E-05  1.00000000E-05  1.00000000E-05  1.00000000E-05  1.00000000E-05  1.00000000E-05  1.00000000E-05  1.00000000E-05  1.00000000E-05  1.00000000E-05  1.00000000E-05  1.00000000E-05  1.00000000E-05  1.00000000E-05
    1.00000000E-05  1.00000000E-05  1.00000000E-05  1.00000000E-05  1.00000000E-05  1.00000000E-05  1.00000000E-05  1.00000000E-05  1.00000000E-05  1.00000000E-05  1.00000000E-05  1.00000000E-05  1.00000000E-05  1.00000000E-05  1.00000000E-05  1.00000000E-05  1.00000000E-05  1.00000000E-05  1.00000000E-05  1.00000000E-05
    1.00000000E-05  1.00000000E-05  1.00000000E-05  1.00000000E-05  1.00000000E-05  1.00000000E-05  1.00000000E-05  1.00000000E-05  1.00000000E-05  1.00000000E-05  1.00000000E-05  1.00000000E-05  1.00000000E-05  1.00000000E-05  1.00000000E-05  1.00000000E-05  1.00000000E-05  1.00000000E-05  1.00000000E-05  1.00000000E-05
    1.00000000E-05  1.00000000E-05  1.00000000E-05  1.00000000E-05  1.00000000E-05  1.00000000E-05  1.00000000E-05  1.00000000E-05  1.00000000E-05  1.00000000E-05  1.00000000E-05  1.00000000E-05  1.00000000E-05  1.00000000E-05  1.00000000E-05  1.00000000E-05  1.00000000E-05  1.00000000E-05  1.00000000E-05  1.00000000E-05
    1.00000000E-05  1.00000000E-05  1.00000000E-05  1.00000000E-05  1.00000000E-05  1.00000000E-05  1.00000000E-05  1.00000000E-05  1.00000000E-05  1.00000000E-05  1.00000000E-05  1.00000000E-05  1.00000000E-05  1.00000000E-05  1.00000000E-05  1.00000000E-05  1.00000000E-05  1.00000000E-05  1.00000000E-05  1.00000000E-05
    1.00000000E-05  1.00000000E-05  1.00000000E-05  1.00000000E-05  1.00000000E-05  1.00000000E-05  1.00000000E-05  1.00000000E-05  1.00000000E-05  1.00000000E-05  1.00000000E-05  1.00000000E-05  1.00000000E-05  1.00000000E-05  1.00000000E-05  1.00000000E-05  1.00000000E-05  1.00000000E-05  1.00000000E-05  1.00000000E-05
    1.00000000E-05  1.00000000E-05  1.00000000E-05  1.00000000E-05  1.00000000E-05  1.00000000E-05  1.00000000E-05  1.00000000E-05  1.00000000E-05  1.00000000E-05  1.00000000E-05  1.00000000E-05  1.00000000E-05  1.00000000E-05  1.00000000E-05  1.00000000E-05  1.00000000E-05  1.00000000E-05  1.00000000E-05  1.00000000E-05
    1.00000000E-05  1.00000000E-05  1.00000000E-05  1.00000000E-05  1.00000000E-05  1.00000000E-05  1.00000000E-05  1.00000000E-05  1.00000000E-05  1.00000000E-05  1.00000000E-05  1.00000000E-05  1.00000000E-05  1.00000000E-05  1.00000000E-05  1.00000000E-05  1.00000000E-05  1.00000000E-05  1.00000000E-05  1.00000000E-05
    1.00000000E-05  1.00000000E-05  1.00000000E-05  1.00000000E-05  1.00000000E-05  1.00000000E-05  1.00000000E-05  1.00000000E-05  1.00000000E-05  1.00000000E-05  1.00000000E-05  1.00000000E-05  1.00000000E-05  1.00000000E-05  1.00000000E-05  1.00000000E-05  1.00000000E-05  1.00000000E-05  1.00000000E-05  1.00000000E-05
    1.00000000E-05  1.00000000E-05  1.00000000E-05  1.00000000E-05  1.00000000E-05  1.00000000E-05  1.00000000E-05  1.00000000E-05  1.00000000E-05  1.00000000E-05  1.00000000E-05  1.00000000E-05  1.00000000E-05  1.00000000E-05  1.00000000E-05  1.00000000E-05  1.00000000E-05  1.00000000E-05  1.00000000E-05  1.00000000E-05
    1.00000000E-05  1.00000000E-05  1.00000000E-05  1.00000000E-05  1.00000000E-05  1.00000000E-05  1.00000000E-05  1.00000000E-05  1.00000000E-05  1.00000000E-05  1.00000000E-05  1.00000000E-05  1.00000000E-05  1.00000000E-05  1.00000000E-05  1.00000000E-05  1.00000000E-05  1.00000000E-05  1.00000000E-05  1.00000000E-05
    1.00000000E-05  1.00000000E-05  1.00000000E-05  1.00000000E-05  1.00000000E-05  1.00000000E-05  1.00000000E-05  1.00000000E-05  1.00000000E-05  1.00000000E-05  1.00000000E-05  1.00000000E-05  1.00000000E-05  1.00000000E-05  1.00000000E-05  1.00000000E-05  1.00000000E-05  1.00000000E-05  1.00000000E-05  1.00000000E-05
    1.00000000E-05  1.00000000E-05  1.00000000E-05  1.00000000E-05  1.00000000E-05  1.00000000E-05  1.00000000E-05  1.00000000E-05  1.00000000E-05  1.00000000E-05  1.00000000E-05  1.00000000E-05  1.00000000E-05  1.00000000E-05  1.00000000E-05  1.00000000E-05  1.00000000E-05  1.00000000E-05  1.00000000E-05  1.00000000E-05
    1.00000000E-05  1.00000000E-05  1.00000000E-05  1.00000000E-05  1.00000000E-05  1.00000000E-05  1.00000000E-05  1.00000000E-05  1.00000000E-05  1.00000000E-05  1.00000000E-05  1.00000000E-05  1.00000000E-05  1.00000000E-05  1.00000000E-05  1.00000000E-05  1.00000000E-05  1.00000000E-05  1.00000000E-05  1.00000000E-05
    1.00000000E-05  1.00000000E-05  1.00000000E-05  1.00000000E-05  1.00000000E-05  1.00000000E-05  1.00000000E-05  1.00000000E-05  1.00000000E-05  1.00000000E-05  1.00000000E-05  1.00000000E-05  1.00000000E-05  1.00000000E-05  1.00000000E-05  1.00000000E-05  1.00000000E-05  1.00000000E-05  1.00000000E-05  1.00000000E-05
    1.00000000E-05  1.00000000E-05  1.00000000E-05  1.00000000E-05  1.00000000E-05  1.00000000E-05  1.00000000E-05  1.00000000E-05  1.00000000E-05  1.00000000E-05  1.00000000E-05  1.00000000E-05  1.00000000E-05  1.00000000E-05  1.00000000E-05  1.00000000E-05  1.00000000E-05  1.00000000E-05  1.00000000E-05  1.00000000E-05
    1.00000000E-05  1.00000000E-05  1.00000000E-05  1.00000000E-05  1.00000000E-05  1.00000000E-05  1.00000000E-05  1.00000000E-05  1.00000000E-05  1.00000000E-05  1.00000000E-05  1.00000000E-05  1.00000000E-05  1.00000000E-05  1.00000000E-05  1.00000000E-05  1.00000000E-05  1.00000000E-05  1.00000000E-05  1.00000000E-05
    1.00000000E-05  1.00000000E-05  1.00000000E-05  1.00000000E-05  1.00000000E-05  1.00000000E-05  1.00000000E-05  1.00000000E-05  1.00000000E-05  1.00000000E-05  1.00000000E-05  1.00000000E-05  1.00000000E-05  1.00000000E-05  1.00000000E-05  1.00000000E-05  1.00000000E-05  1.00000000E-05  1.00000000E-05  1.00000000E-05
    1.00000000E-05  1.00000000E-05  1.00000000E-05  1.00000000E-05  1.00000000E-05  1.00000000E-05  1.00000000E-05  1.00000000E-05  1.00000000E-05  1.00000000E-05  1.00000000E-05  1.00000000E-05  1.00000000E-05  1.00000000E-05  1.00000000E-05  1.00000000E-05  1.00000000E-05  1.00000000E-05  1.00000000E-05  1.00000000E-05
    1.00000000E-05  1.00000000E-05  1.00000000E-05  1.00000000E-05  1.00000000E-05  1.00000000E-05  1.00000000E-05  1.00000000E-05  1.00000000E-05  1.00000000E-05  1.00000000E-05  1.00000000E-05  1.00000000E-05  1.00000000E-05  1.00000000E-05  1.00000000E-05  1.00000000E-05  1.00000000E-05  1.00000000E-05  1.00000000E-05
    1.00000000E-05  1.00000000E-05  1.00000000E-05  1.00000000E-05  1.00000000E-05  1.00000000E-05  1.00000000E-05  1.00000000E-05  1.00000000E-05  1.00000000E-05  1.00000000E-05  1.00000000E-05  1.00000000E-05  1.00000000E-05  1.00000000E-05  1.00000000E-05  1.00000000E-05  1.00000000E-05  1.00000000E-05  1.00000000E-05
    1.00000000E-05  1.00000000E-05  1.00000000E-05  1.00000000E-05  1.00000000E-05  1.00000000E-05  1.00000000E-05  1.00000000E-05  1.00000000E-05  1.00000000E-05  1.00000000E-05  1.00000000E-05  1.00000000E-05  1.00000000E-05  1.00000000E-05  1.00000000E-05  1.00000000E-05  1.00000000E-05  1.00000000E-05  1.00000000E-05
    1.00000000E-05  1.00000000E-05  1.00000000E-05  1.00000000E-05  1.00000000E-05  1.00000000E-05  1.00000000E-05  1.00000000E-05  1.00000000E-05  1.00000000E-05  1.00000000E-05  1.00000000E-05  1.00000000E-05  1.00000000E-05  1.00000000E-05  1.00000000E-05  1.00000000E-05  1.00000000E-05  1.00000000E-05  1.00000000E-05
    1.00000000E-05  1.00000000E-05  1.00000000E-05  1.00000000E-05  1.00000000E-05  1.00000000E-05  1.00000000E-05  1.00000000E-05  1.00000000E-05  1.00000000E-05  1.00000000E-05  1.00000000E-05  1.00000000E-05  1.00000000E-05  1.00000000E-05  1.00000000E-05  1.00000000E-05  1.00000000E-05  1.00000000E-05  1.00000000E-05
    1.00000000E-05  1.00000000E-05  1.00000000E-05  1.00000000E-05  1.00000000E-05  1.00000000E-05  1.00000000E-05  1.00000000E-05  1.00000000E-05  1.00000000E-05  1.00000000E-05  1.00000000E-05  1.00000000E-05  1.00000000E-05  1.00000000E-05  1.00000000E-05  1.00000000E-05  1.00000000E-05  1.00000000E-05  1.00000000E-05
    1.00000000E-05  1.00000000E-05  1.00000000E-05  1.00000000E-05  1.00000000E-05  1.00000000E-05  1.00000000E-05  1.00000000E-05  1.00000000E-05  1.00000000E-05  1.00000000E-05  1.00000000E-05  1.00000000E-05  1.00000000E-05  1.00000000E-05  1.00000000E-05  1.00000000E-05  1.00000000E-05  1.00000000E-05  1.00000000E-05
    1.00000000E-05  1.00000000E-05  1.00000000E-05  1.00000000E-05  1.00000000E-05  1.00000000E-05  1.00000000E-05  1.00000000E-05  1.00000000E-05  1.00000000E-05  1.00000000E-05  1.00000000E-05  1.00000000E-05  1.00000000E-05  1.00000000E-05  1.00000000E-05  1.00000000E-05  1.00000000E-05  1.00000000E-05  1.00000000E-05
    1.00000000E-05  1.00000000E-05  1.00000000E-05  1.00000000E-05  1.00000000E-05  1.00000000E-05  1.00000000E-05  1.00000000E-05  1.00000000E-05  1.00000000E-05  1.00000000E-05  1.00000000E-05  1.00000000E-05  1.00000000E-05  1.00000000E-05  1.00000000E-05  1.00000000E-05  1.00000000E-05  1.00000000E-05  1.00000000E-05
    1.00000000E-05  1.00000000E-05  1.00000000E-05  1.00000000E-05  1.00000000E-05  1.00000000E-05  1.00000000E-05  1.00000000E-05  1.00000000E-05  1.00000000E-05  1.00000000E-05  1.00000000E-05  1.00000000E-05  1.00000000E-05  1.00000000E-05  1.00000000E-05  1.00000000E-05  1.00000000E-05  1.00000000E-05  1.00000000E-05
    1.00000000E-05  1.00000000E-05  1.00000000E-05  1.00000000E-05  1.00000000E-05  1.00000000E-05  1.00000000E-05  1.00000000E-05  1.00000000E-05  1.00000000E-05  1.00000000E-05  1.00000000E-05  1.00000000E-05  1.00000000E-05  1.00000000E-05  1.00000000E-05  1.00000000E-05  1.00000000E-05  1.00000000E-05  1.00000000E-05
    1.00000000E-05  1.00000000E-05  1.00000000E-05  1.00000000E-05  1.00000000E-05  1.00000000E-05  1.00000000E-05  1.00000000E-05  1.00000000E-05  1.00000000E-05  1.00000000E-05  1.00000000E-05  1.00000000E-05  1.00000000E-05  1.00000000E-05  1.00000000E-05  1.00000000E-05  1.00000000E-05  1.00000000E-05  1.00000000E-05
    1.00000000E-05  1.00000000E-05  1.00000000E-05  1.00000000E-05  1.00000000E-05  1.00000000E-05  1.00000000E-05  1.00000000E-05  1.00000000E-05  1.00000000E-05  1.00000000E-05  1.00000000E-05  1.00000000E-05  1.00000000E-05  1.00000000E-05  1.00000000E-05  1.00000000E-05  1.00000000E-05  1.00000000E-05  1.00000000E-05
    1.00000000E-05  1.00000000E-05  1.00000000E-05  1.00000000E-05  1.00000000E-05  1.00000000E-05  1.00000000E-05  1.00000000E-05  1.00000000E-05  1.00000000E-05  1.00000000E-05  1.00000000E-05  1.00000000E-05  1.00000000E-05  1.00000000E-05  1.00000000E-05  1.00000000E-05  1.00000000E-05  1.00000000E-05  1.00000000E-05
    1.00000000E-05  1.00000000E-05  1.00000000E-05  1.00000000E-05  1.00000000E-05  1.00000000E-05  1.00000000E-05  1.00000000E-05  1.00000000E-05  1.00000000E-05  1.00000000E-05  1.00000000E-05  1.00000000E-05  1.00000000E-05  1.00000000E-05  1.00000000E-05  1.00000000E-05  1.00000000E-05  1.00000000E-05  1.00000000E-05
    1.00000000E-05  1.00000000E-05  1.00000000E-05  1.00000000E-05  1.00000000E-05  1.00000000E-05  1.00000000E-05  1.00000000E-05  1.00000000E-05  1.00000000E-05  1.00000000E-05  1.00000000E-05  1.00000000E-05  1.00000000E-05  1.00000000E-05  1.00000000E-05  1.00000000E-05  1.00000000E-05  1.00000000E-05  1.00000000E-05
    1.00000000E-05  1.00000000E-05  1.00000000E-05  1.00000000E-05  1.00000000E-05  1.00000000E-05  1.00000000E-05  1.00000000E-05  1.00000000E-05  1.00000000E-05  1.00000000E-05  1.00000000E-05  1.00000000E-05  1.00000000E-05  1.00000000E-05  1.00000000E-05  1.00000000E-05  1.00000000E-05  1.00000000E-05  1.00000000E-05
    1.00000000E-05  1.00000000E-05  1.00000000E-05  1.00000000E-05  1.00000000E-05  1.00000000E-05  1.00000000E-05  1.00000000E-05  1.00000000E-05  1.00000000E-05  1.00000000E-05  1.00000000E-05  1.00000000E-05  1.00000000E-05  1.00000000E-05  1.00000000E-05  1.00000000E-05  1.00000000E-05  1.00000000E-05  1.00000000E-05
    1.00000000E-05  1.00000000E-05  1.00000000E-05  1.00000000E-05  1.00000000E-05  1.00000000E-05  1.00000000E-05  1.00000000E-05  1.00000000E-05  1.00000000E-05  1.00000000E-05  1.00000000E-05  1.00000000E-05  1.00000000E-05  1.00000000E-05  1.00000000E-05  1.00000000E-05  1.00000000E-05  1.00000000E-05  1.00000000E-05
    1.00000000E-05  1.00000000E-05  1.00000000E-05  1.00000000E-05  1.00000000E-05  1.00000000E-05  1.00000000E-05  1.00000000E-05  1.00000000E-05  1.00000000E-05  1.00000000E-05  1.00000000E-05  1.00000000E-05  1.00000000E-05  1.00000000E-05  1.00000000E-05  1.00000000E-05  1.00000000E-05  1.00000000E-05  1.00000000E-05
    1.00000000E-05  1.00000000E-05  1.00000000E-05  1.00000000E-05  1.00000000E-05  1.00000000E-05  1.00000000E-05  1.00000000E-05  1.00000000E-05  1.00000000E-05  1.00000000E-05  1.00000000E-05  1.00000000E-05  1.00000000E-05  1.00000000E-05  1.00000000E-05  1.00000000E-05  1.00000000E-05  1.00000000E-05  1.00000000E-05
    1.00000000E-05  1.00000000E-05  1.00000000E-05  1.00000000E-05  1.00000000E-05  1.00000000E-05  1.00000000E-05  1.00000000E-05  1.00000000E-05  1.00000000E-05  1.00000000E-05  1.00000000E-05  1.00000000E-05  1.00000000E-05  1.00000000E-05  1.00000000E-05  1.00000000E-05  1.00000000E-05  1.00000000E-05  1.00000000E-05
    1.00000000E-05  1.00000000E-05  1.00000000E-05  1.00000000E-05  1.00000000E-05  1.00000000E-05  1.00000000E-05  1.00000000E-05  1.00000000E-05  1.00000000E-05  1.00000000E-05  1.00000000E-05  1.00000000E-05  1.00000000E-05  1.00000000E-05  1.00000000E-05  1.00000000E-05  1.00000000E-05  1.00000000E-05  1.00000000E-05
    1.00000000E-05  1.00000000E-05  1.00000000E-05  1.00000000E-05  1.00000000E-05  1.00000000E-05  1.00000000E-05  1.00000000E-05  1.00000000E-05  1.00000000E-05  1.00000000E-05  1.00000000E-05  1.00000000E-05  1.00000000E-05  1.00000000E-05  1.00000000E-05  1.00000000E-05  1.00000000E-05  1.00000000E-05  1.00000000E-05
    1.00000000E-05  1.00000000E-05  1.00000000E-05  1.00000000E-05  1.00000000E-05  1.00000000E-05  1.00000000E-05  1.00000000E-05  1.00000000E-05  1.00000000E-05  1.00000000E-05  1.00000000E-05  1.00000000E-05  1.00000000E-05  1.00000000E-05  1.00000000E-05  1.00000000E-05  1.00000000E-05  1.00000000E-05  1.00000000E-05
    1.00000000E-05  1.00000000E-05  1.00000000E-05  1.00000000E-05  1.00000000E-05  1.00000000E-05  1.00000000E-05  1.00000000E-05  1.00000000E-05  1.00000000E-05  1.00000000E-05  1.00000000E-05  1.00000000E-05  1.00000000E-05  1.00000000E-05  1.00000000E-05  1.00000000E-05  1.00000000E-05  1.00000000E-05  1.00000000E-05
    1.00000000E-05  1.00000000E-05  1.00000000E-05  1.00000000E-05  1.00000000E-05  1.00000000E-05  1.00000000E-05  1.00000000E-05  1.00000000E-05  1.00000000E-05  1.00000000E-05  1.00000000E-05  1.00000000E-05  1.00000000E-05  1.00000000E-05  1.00000000E-05  1.00000000E-05  1.00000000E-05  1.00000000E-05  1.00000000E-05
    1.00000000E-05  1.00000000E-05  1.00000000E-05  1.00000000E-05  1.00000000E-05  1.00000000E-05  1.00000000E-05  1.00000000E-05  1.00000000E-05  1.00000000E-05  1.00000000E-05  1.00000000E-05  1.00000000E-05  1.00000000E-05  1.00000000E-05  1.00000000E-05  1.00000000E-05  1.00000000E-05  1.00000000E-05  1.00000000E-05
    1.00000000E-05  1.00000000E-05  1.00000000E-05  1.00000000E-05  1.00000000E-05  1.00000000E-05  1.00000000E-05  1.00000000E-05  1.00000000E-05  1.00000000E-05  1.00000000E-05  1.00000000E-05  1.00000000E-05  1.00000000E-05  1.00000000E-05  1.00000000E-05  1.00000000E-05  1.00000000E-05  1.00000000E-05  1.00000000E-05
    1.00000000E-05  1.00000000E-05  1.00000000E-05  1.00000000E-05  1.00000000E-05  1.00000000E-05  1.00000000E-05  1.00000000E-05  1.00000000E-05  1.00000000E-05  1.00000000E-05  1.00000000E-05  1.00000000E-05  1.00000000E-05  1.00000000E-05  1.00000000E-05  1.00000000E-05  1.00000000E-05  1.00000000E-05  1.00000000E-05
    1.00000000E-05  1.00000000E-05  1.00000000E-05  1.00000000E-05  1.00000000E-05  1.00000000E-05  1.00000000E-05  1.00000000E-05  1.00000000E-05  1.00000000E-05  1.00000000E-05  1.00000000E-05  1.00000000E-05  1.00000000E-05  1.00000000E-05  1.00000000E-05  1.00000000E-05  1.00000000E-05  1.00000000E-05  1.00000000E-05
    1.00000000E-05  1.00000000E-05  1.00000000E-05  1.00000000E-05  1.00000000E-05  1.00000000E-05  1.00000000E-05  1.00000000E-05  1.00000000E-05  1.00000000E-05  1.00000000E-05  1.00000000E-05  1.00000000E-05  1.00000000E-05  1.00000000E-05  1.00000000E-05  1.00000000E-05  1.00000000E-05  1.00000000E-05  1.00000000E-05
    1.00000000E-05  1.00000000E-05  1.00000000E-05  1.00000000E-05  1.00000000E-05  1.00000000E-05  1.00000000E-05  1.00000000E-05  1.00000000E-05  1.00000000E-05  1.00000000E-05  1.00000000E-05  1.00000000E-05  1.00000000E-05  1.00000000E-05  1.00000000E-05  1.00000000E-05  1.00000000E-05  1.00000000E-05  1.00000000E-05
    1.00000000E-05  1.00000000E-05  1.00000000E-05  1.00000000E-05  1.00000000E-05  1.00000000E-05  1.00000000E-05  1.00000000E-05  1.00000000E-05  1.00000000E-05  1.00000000E-05  1.00000000E-05  1.00000000E-05  1.00000000E-05  1.00000000E-05  1.00000000E-05  1.00000000E-05  1.00000000E-05  1.00000000E-05  1.00000000E-05
    1.00000000E-05  1.00000000E-05  1.00000000E-05  1.00000000E-05  1.00000000E-05  1.00000000E-05  1.00000000E-05  1.00000000E-05  1.00000000E-05  1.00000000E-05  1.00000000E-05  1.00000000E-05  1.00000000E-05  1.00000000E-05  1.00000000E-05  1.00000000E-05  1.00000000E-05  1.00000000E-05  1.00000000E-05  1.00000000E-05
    1.00000000E-05  1.00000000E-05  1.00000000E-05  1.00000000E-05  1.00000000E-05  1.00000000E-05  1.00000000E-05  1.00000000E-05  1.00000000E-05  1.00000000E-05  1.00000000E-05  1.00000000E-05  1.00000000E-05  1.00000000E-05  1.00000000E-05  1.00000000E-05  1.00000000E-05  1.00000000E-05  1.00000000E-05  1.00000000E-05
    1.00000000E-05  1.00000000E-05  1.00000000E-05  1.00000000E-05  1.00000000E-05  1.00000000E-05  1.00000000E-05  1.00000000E-05  1.00000000E-05  1.00000000E-05  1.00000000E-05  1.00000000E-05  1.00000000E-05  1.00000000E-05  1.00000000E-05  1.00000000E-05  1.00000000E-05  1.00000000E-05  1.00000000E-05  1.00000000E-05
    1.00000000E-05  1.00000000E-05  1.00000000E-05  1.00000000E-05  1.00000000E-05  1.00000000E-05  1.00000000E-05  1.00000000E-05  1.00000000E-05  1.00000000E-05  1.00000000E-05  1.00000000E-05  1.00000000E-05  1.00000000E-05  1.00000000E-05  1.00000000E-05  1.00000000E-05  1.00000000E-05  1.00000000E-05  1.00000000E-05
    1.00000000E-05  1.00000000E-05  1.00000000E-05  1.00000000E-05  1.00000000E-05  1.00000000E-05  1.00000000E-05  1.00000000E-05  1.00000000E-05  1.00000000E-05  1.00000000E-05  1.00000000E-05  1.00000000E-05  1.00000000E-05  1.00000000E-05  1.00000000E-05  1.00000000E-05  1.00000000E-05  1.00000000E-05  1.00000000E-05
    1.00000000E-05  1.00000000E-05  1.00000000E-05  1.00000000E-05  1.00000000E-05  1.00000000E-05  1.00000000E-05  1.00000000E-05  1.00000000E-05  1.00000000E-05  1.00000000E-05  1.00000000E-05  1.00000000E-05  1.00000000E-05  1.00000000E-05  1.00000000E-05  1.00000000E-05  1.00000000E-05  1.00000000E-05  1.00000000E-05
    1.00000000E-05  1.00000000E-05  1.00000000E-05  1.00000000E-05  1.00000000E-05  1.00000000E-05  1.00000000E-05  1.00000000E-05  1.00000000E-05  1.00000000E-05  1.00000000E-05  1.00000000E-05  1.00000000E-05  1.00000000E-05  1.00000000E-05  1.00000000E-05  1.00000000E-05  1.00000000E-05  1.00000000E-05  1.00000000E-05
    1.00000000E-05  1.00000000E-05  1.00000000E-05  1.00000000E-05  1.00000000E-05  1.00000000E-05  1.00000000E-05  1.00000000E-05  1.00000000E-05  1.00000000E-05  1.00000000E-05  1.00000000E-05  1.00000000E-05  1.00000000E-05  1.00000000E-05  1.00000000E-05  1.00000000E-05  1.00000000E-05  1.00000000E-05  1.00000000E-05
    1.00000000E-05  1.00000000E-05  1.00000000E-05  1.00000000E-05  1.00000000E-05  1.00000000E-05  1.00000000E-05  1.00000000E-05  1.00000000E-05  1.00000000E-05  1.00000000E-05  1.00000000E-05  1.00000000E-05  1.00000000E-05  1.00000000E-05  1.00000000E-05  1.00000000E-05  1.00000000E-05  1.00000000E-05  1.00000000E-05
    1.00000000E-05  1.00000000E-05  1.00000000E-05  1.00000000E-05  1.00000000E-05  1.00000000E-05  1.00000000E-05  1.00000000E-05  1.00000000E-05  1.00000000E-05  1.00000000E-05  1.00000000E-05  1.00000000E-05  1.00000000E-05  1.00000000E-05  1.00000000E-05  1.00000000E-05  1.00000000E-05  1.00000000E-05  1.00000000E-05
    1.00000000E-05  1.00000000E-05  1.00000000E-05  1.00000000E-05  1.00000000E-05  1.00000000E-05  1.00000000E-05  1.00000000E-05  1.00000000E-05  1.00000000E-05  1.00000000E-05  1.00000000E-05  1.00000000E-05  1.00000000E-05  1.00000000E-05  1.00000000E-05  1.00000000E-05  1.00000000E-05  1.00000000E-05  1.00000000E-05
    1.00000000E-05  1.00000000E-05  1.00000000E-05  1.00000000E-05  1.00000000E-05  1.00000000E-05  1.00000000E-05  1.00000000E-05  1.00000000E-05  1.00000000E-05  1.00000000E-05  1.00000000E-05  1.00000000E-05  1.00000000E-05  1.00000000E-05  1.00000000E-05  1.00000000E-05  1.00000000E-05  1.00000000E-05  1.00000000E-05
    1.00000000E-05  1.00000000E-05  1.00000000E-05  1.00000000E-05  1.00000000E-05  1.00000000E-05  1.00000000E-05  1.00000000E-05  1.00000000E-05  1.00000000E-05  1.00000000E-05  1.00000000E-05  1.00000000E-05  1.00000000E-05  1.00000000E-05  1.00000000E-05  1.00000000E-05  1.00000000E-05  1.00000000E-05  1.00000000E-05