
BEGIN options
  auxiliary  bot  top
  BOUNDNAMES
  SAVE_FLOWS
  OBS6  FILEIN  flow.ghb2.obs
END options

BEGIN dimensions
  MAXBOUND  70
END dimensions

BEGIN period  1
  1 2     394.188200       127.041013    -100.00000000     396.81036377  davenport_ghb
  1 3     393.821471       133.406393    -123.07088000     398.63214111  davenport_ghb
  1 13     391.151832       134.278322    -105.34980000     419.76300049  davenport_ghb
  1 14     389.333506       128.189722     -98.39696200     402.90557861  davenport_ghb
  1 23     386.694471       131.561155     -96.78821500     417.69879150  davenport_ghb
  1 25     384.866771       128.309229     -99.74122200     402.02868652  davenport_ghb
  1 35     383.043722       128.203488    -100.00000000     401.35629272  davenport_ghb
  1 37     381.229916       147.703847    -175.44611000     402.16894531  davenport_ghb
  1 50     378.584561       129.315586    -100.00000000     405.70538330  davenport_ghb
  1 51     377.323347       134.430763    -115.27783000     410.43112183  davenport_ghb
  1 65     375.216751       132.095551    -100.00000000     416.57681274  davenport_ghb
  1 67     374.016351       138.475954    -125.70550000     415.82266235  davenport_ghb
  1 85     371.966752       132.025266    -100.00000000     416.30194092  davenport_ghb
  1 87     370.209326       132.840431    -100.00000000     419.48965454  davenport_ghb
  1 109     368.460755       132.513916    -100.00000000     418.21286011  davenport_ghb
  1 111     366.282547       129.712658    -100.00000000     407.25817871  davenport_ghb
  1 136     360.711731       144.993644    -167.38701000     399.62951660  davenport_ghb
  1 137     357.237155       134.748255    -125.31125000     401.63928223  davenport_ghb
  1 140     353.796202       145.480399    -166.46879000     402.45117188  davenport_ghb
  1 141     350.365894       159.775508    -221.81130000     403.01153564  davenport_ghb
  1 142     348.494560       159.865621    -223.70085000     401.47442627  davenport_ghb
  1 151     346.295681       164.770820    -244.64792000     399.70974731  davenport_ghb
  1 152     344.445983       162.234238    -234.49013000     399.94790649  davenport_ghb
  1 155     342.606222       160.268449    -226.54078000     400.20980835  davenport_ghb
  1 156     340.776201       159.019228    -220.69178000     401.17355347  davenport_ghb
  1 165     339.162365       164.154222    -239.62466000     402.32174683  davenport_ghb
  1 166     338.255295       163.232192    -235.70547000     402.63519287  davenport_ghb
  1 169     337.350667       162.547042    -231.78628000     403.87500000  davenport_ghb
  1 171     336.980736       165.305380    -242.20484000     404.24322510  davenport_ghb
  1 172     336.795616       164.363780    -238.28565000     404.48022461  davenport_ghb
  1 173     336.610474       163.386969    -234.36646000     404.57946777  davenport_ghb
  1 174     336.425404       162.062357    -229.42451000     404.34133911  davenport_ghb
  1 294     336.206909       164.885969    -239.54427000     405.26370239  davenport_ghb
  1 421     336.021857       163.415507    -234.54450000     404.51293945  davenport_ghb
  1 422     335.837373       162.225673    -229.54474000     404.85980225  davenport_ghb
  1 425     335.543655       161.895552    -228.34312000     404.77041626  davenport_ghb
  1 434     335.174848       157.634319    -211.60672000     404.84271240  davenport_ghb
  1 436     334.739595       161.091727    -223.06380000     406.90631104  davenport_ghb
  1 460     334.371730       156.420876    -205.89826000     405.80590820  davenport_ghb
  1 461     334.520194       149.996052    -180.96651000     405.61251831  davenport_ghb
  1 466     335.530145       148.572092    -171.66613000     409.34429932  davenport_ghb
  1 467     336.387166       140.678375    -144.65724000     405.48379517  davenport_ghb
  1 470     337.755075       132.583657    -121.13119000     397.35440063  davenport_ghb
  1 471     339.482627       125.455554     -95.86412800     394.74609375  davenport_ghb
  1 472     341.184785       120.466388     -76.97137500     394.12808228  davenport_ghb
  1 473     341.673531       118.745024     -58.07862300     406.28912354  davenport_ghb
  1 474     342.163506       113.997341     -39.42202900     406.37936401  davenport_ghb
  1 475     342.653946       109.046137     -20.52927600     405.90979004  davenport_ghb
  1 909     343.682433       106.984986      -2.01766000     416.36102295  davenport_ghb
  1 910     346.066063       115.563149     -33.10483400     418.81985474  davenport_ghb
  1 913     348.466277       115.885073     -50.04570300     403.13790894  davenport_ghb
  1 914     350.883139       123.982596     -63.47475100     421.37527466  davenport_ghb
  1 917     353.153800       126.958757     -76.90379900     419.58483887  davenport_ghb
  1 919     352.844802       166.517834    -219.91170000     431.27789307  davenport_ghb
  1 920     352.604384       179.224348    -279.49044000     421.38973999  davenport_ghb
  1 921     352.363698       153.740573    -182.89936000     418.32312012  davenport_ghb
  1 922     351.666899       149.069012    -169.94476000     413.00897217  davenport_ghb
  1 923     348.991810       148.594550    -161.45315000     419.64514160  davenport_ghb
  1 1110     345.587669       161.614212    -221.45155000     410.56176758  davenport_ghb
  1 1111     342.958817       167.527946    -229.95517000     425.18457031  davenport_ghb
  1 1114     338.763328       174.892702    -290.50132000     393.43939209  davenport_ghb
  1 1115     334.517953       172.849003    -285.12347000     390.82498169  davenport_ghb
  1 1223     329.562137       183.084059    -335.41641000     380.55755615  davenport_ghb
  1 1224     325.432308       181.095371    -314.82259000     393.37435913  davenport_ghb
  1 1227     320.335830       195.289063    -337.99593000     425.70736694  davenport_ghb
  1 1228     314.535474       233.128090    -496.22754000     415.45010376  davenport_ghb
  1 1231     308.840279       244.283542    -542.46731000     412.83517456  davenport_ghb
  1 1232     303.248268       234.108658    -514.93753000     400.57479858  davenport_ghb
  1 1235     301.143760       224.110146    -487.48135000     388.93045044  davenport_ghb
  1 1236     301.143760       241.400303    -558.89433000     385.13287354  davenport_ghb
END period  1

