# File generated by Flopy version 3.3.5 on 05/31/2022 at 13:01:31.
BEGIN options
  FIXED_CELL
  READASARRAYS
  SAVE_FLOWS
END options

BEGIN period  1

  RECHARGE
   OPEN/CLOSE rcarray.dat
END period  1

