# File generated by Flopy version 3.3.5 on 05/31/2022 at 13:01:31.
BEGIN options
  SAVE_FLOWS
  XT3D
END options

BEGIN griddata
  icelltype
    CONSTANT  1
  k
    OPEN/CLOSE  kxarray.dat
  k33
    CONSTANT       1.00000000
END griddata

