
BEGIN options
  auxiliary  bot  top
  BOUNDNAMES
  SAVE_FLOWS
  OBS6  FILEIN  flow.ghb6.obs
END options

BEGIN dimensions
  MAXBOUND  20
END dimensions

BEGIN period  1
  1 1     383.321817       106.165899    -130.78265000     392.88632202  divide_ghb
  1 4     378.328150       118.172464    -188.64855000     394.24334717  divide_ghb
  1 5     380.816680       108.060064    -141.62749000     391.38446045  divide_ghb
  1 15     376.839733       144.431179    -323.39600000     389.01849365  divide_ghb
  1 16     376.839833       138.209988    -291.54923000     390.17895508  divide_ghb
  1 26     377.062247       189.645516    -533.64806000     401.78860474  divide_ghb
  1 27     376.839733       169.536527    -442.02228000     394.22567749  divide_ghb
  1 38     377.441674       186.231797    -511.13290000     407.46545410  divide_ghb
  1 40     377.680146       188.724146    -521.65890000     409.23287964  divide_ghb
  1 52     379.284673       231.680416    -725.55951000     417.21652222  divide_ghb
  1 53     381.772970       283.913232    -979.01290000     421.40438843  divide_ghb
  1 68     384.277540       226.870067    -693.62099000     425.42785645  divide_ghb
  1 69     389.413617       153.845472    -330.08694000     428.76394653  divide_ghb
  1 88     395.611179       143.159952    -272.52661000     433.61755371  divide_ghb
  1 89     399.403328       146.626635    -283.83092000     439.41284180  divide_ghb
  1 112     408.139477       142.901831    -263.62391000     441.24700928  divide_ghb
  1 114     415.089370       144.589898    -268.54827000     444.64910889  divide_ghb
  1 175     426.110874       131.474778    -200.96584000     447.54055786  divide_ghb
  1 176     433.366847       126.561053    -173.50253000     450.76666260  divide_ghb
  1 476     434.272600       118.356641    -124.07641000     459.72406006  divide_ghb
END period  1

