
BEGIN options
  auxiliary  bot  top
  BOUNDNAMES
  SAVE_FLOWS
  OBS6  FILEIN  flow.ghb1.obs
END options

BEGIN dimensions
  MAXBOUND  15
END dimensions

BEGIN period  1
  1 1236     291.758000     67.2994881    -558.89433000     385.13287354  discharge_ghb
  1 1239     291.758000    71.3738509    -622.20134000     378.97799683  discharge_ghb
  1 1241     291.060744    79.3500899    -735.46352000     377.60021973  discharge_ghb
  1 1319     290.354563    82.4960703    -807.95330000     349.24026489  discharge_ghb
  1 1321     289.594380    83.5635573    -832.53944000     339.62805176  discharge_ghb
  1 1395     288.531471    84.9443231    -857.47532000     334.06051636  discharge_ghb
  1 1397     287.472470    86.4962231    -878.42290000     334.88183594  discharge_ghb
  1 1398     286.935446    87.1861471    -892.06167000     330.92080688  discharge_ghb
  1 1469     287.363031    87.7899611    -900.00000000     331.45233154  discharge_ghb
  1 1472     288.067929    87.6003783    -900.00000000     328.79290771  discharge_ghb
  1 1530     288.777554    89.6721940    -931.12079000     326.73413086  discharge_ghb
  1 1533     289.833213    92.6350644    -974.49129000     324.92465210  discharge_ghb
  1 1573     290.892597    97.8499488   -1045.29950000     327.26675415  discharge_ghb
  1 1576     291.448314    99.7418292   -1069.43360000     329.67065430  discharge_ghb
  1 1577     291.758000    106.473855   -1157.59660000     335.93951416  discharge_ghb
END period  1

