
BEGIN options
  auxiliary  bot  top
  BOUNDNAMES
  SAVE_FLOWS
  OBS6  FILEIN  flow.ghb5.obs
END options

BEGIN dimensions
  MAXBOUND  28
END dimensions

BEGIN period  1
  1 1620     290.125700       26.7912371   -1215.61760000     332.96194458  eastern_ghb
  1 1622     290.125700       27.9820319   -1281.92790000     335.48162842  eastern_ghb
  1 1662     290.263319       28.9849739   -1335.10480000     340.27700806  eastern_ghb
  1 1665     290.597313       26.6510007   -1206.20570000     334.26812744  eastern_ghb
  1 1706     290.827996       26.4703033   -1189.03650000     340.99270630  eastern_ghb
  1 1708     291.050276       26.0078698   -1158.32450000     344.97552490  eastern_ghb
  1 1753     290.027244       25.5683777   -1127.22390000     350.67227173  eastern_ghb
  1 1754     289.370416       24.9641101   -1105.00350000     337.96496582  eastern_ghb
  1 1757     288.353362       25.4338526   -1131.10910000     339.01110840  eastern_ghb
  1 1758     288.257496       25.2305278   -1132.58530000     325.78265381  eastern_ghb
  1 1803     288.631777       25.1508288   -1144.72170000     309.04013062  eastern_ghb
  1 1804     288.837404       25.6133306   -1160.67610000     319.81860352  eastern_ghb
  1 1849     289.351875       25.7941501   -1182.42130000     308.52471924  eastern_ghb
  1 1851     290.105610       25.8248523   -1196.01970000     296.70132446  eastern_ghb
  1 1896     290.861063       25.8137445   -1200.00000000     292.07843018  eastern_ghb
  1 1898     291.618706       25.8400771   -1200.00000000     293.60076904  eastern_ghb
  1 1943     292.287383       25.9762179   -1200.00000000     301.47003174  eastern_ghb
  1 1944     292.829546       25.9999386   -1200.00000000     302.84167480  eastern_ghb
  1 1986     293.327672       25.9802548   -1200.00000000     301.70355225  eastern_ghb
  1 1987     293.826745       26.2042518   -1200.00000000     314.65097046  eastern_ghb
  1 2024     294.623097       26.2320109   -1200.00000000     316.25494385  eastern_ghb
  1 2025     295.862551       26.2500458   -1200.00000000     317.29849243  eastern_ghb
  1 2060     297.106716       26.4164435   -1200.00000000     326.91583252  eastern_ghb
  1 2061     298.356315       26.5630188   -1197.85060000     337.53753662  eastern_ghb
  1 2089     299.436061       25.8241379   -1161.98140000     330.69805908  eastern_ghb
  1 2090     300.166010       25.0997850   -1126.81300000     323.99752808  eastern_ghb
  1 2120     301.839480       23.9260338   -1049.63070000     333.33508301  eastern_ghb
  1 2121     300.897866       24.6596433   -1100.00000000     325.36993408  eastern_ghb
END period  1

