# File generated by Flopy version 3.3.5 on 05/31/2022 at 13:01:31.
BEGIN griddata
  strt
    INTERNAL  FACTOR  1.0
       430.00000000     430.00000000     430.00000000     430.00000000     430.00000000     430.00000000     430.00000000     430.00000000     430.00000000     430.00000000     430.00000000     430.00000000     430.00000000     430.00000000     430.00000000     430.00000000     430.00000000     430.00000000     430.00000000     430.00000000
       430.00000000     430.00000000     430.00000000     430.00000000     430.00000000     430.00000000     430.00000000     430.00000000     430.00000000     430.00000000     430.00000000     430.00000000     430.00000000     430.00000000     430.00000000     430.00000000     430.00000000     430.00000000     430.00000000     430.00000000
       430.00000000     430.00000000     430.00000000     430.00000000     430.00000000     430.00000000     430.00000000     430.00000000     430.00000000     430.00000000     430.00000000     430.00000000     430.00000000     430.00000000     430.00000000     430.00000000     430.00000000     430.00000000     430.00000000     430.00000000
       430.00000000     430.00000000     430.00000000     430.00000000     430.00000000     430.00000000     430.00000000     430.00000000     430.00000000     430.00000000     430.00000000     430.00000000     430.00000000     430.00000000     430.00000000     430.00000000     430.00000000     430.00000000     430.00000000     430.00000000
       430.00000000     430.00000000     430.00000000     430.00000000     430.00000000     430.00000000     430.00000000     430.00000000     430.00000000     430.00000000     430.00000000     430.00000000     430.00000000     430.00000000     430.00000000     430.00000000     430.00000000     430.00000000     430.00000000     430.00000000
       430.00000000     430.00000000     430.00000000     430.00000000     430.00000000     430.00000000     430.00000000     430.00000000     430.00000000     430.00000000     430.00000000     430.00000000     430.00000000     430.00000000     430.00000000     430.00000000     430.00000000     430.00000000     430.00000000     430.00000000
       430.00000000     430.00000000     430.00000000     430.00000000     430.00000000     430.00000000     430.00000000     430.00000000     430.00000000     430.00000000     430.00000000     430.00000000     430.00000000     430.00000000     430.00000000     430.00000000     430.00000000     430.00000000     430.00000000     430.00000000
       430.00000000     430.00000000     430.00000000     430.00000000     430.00000000     430.00000000     430.00000000     430.00000000     430.00000000     430.00000000     430.00000000     430.00000000     430.00000000     430.00000000     430.00000000     430.00000000     430.00000000     430.00000000     430.00000000     430.00000000
       430.00000000     430.00000000     430.00000000     430.00000000     430.00000000     430.00000000     430.00000000     430.00000000     430.00000000     430.00000000     430.00000000     430.00000000     430.00000000     430.00000000     430.00000000     430.00000000     430.00000000     430.00000000     430.00000000     430.00000000
       430.00000000     430.00000000     430.00000000     430.00000000     430.00000000     430.00000000     430.00000000     430.00000000     430.00000000     430.00000000     430.00000000     430.00000000     430.00000000     430.00000000     430.00000000     430.00000000     430.00000000     430.00000000     430.00000000     430.00000000
       430.00000000     430.00000000     430.00000000     430.00000000     430.00000000     430.00000000     430.00000000     430.00000000     430.00000000     430.00000000     430.00000000     430.00000000     430.00000000     430.00000000     430.00000000     430.00000000     430.00000000     430.00000000     430.00000000     430.00000000
       430.00000000     430.00000000     430.00000000     430.00000000     430.00000000     430.00000000     430.00000000     430.00000000     430.00000000     430.00000000     430.00000000     430.00000000     430.00000000     430.00000000     430.00000000     430.00000000     430.00000000     430.00000000     430.00000000     430.00000000
       430.00000000     430.00000000     430.00000000     430.00000000     430.00000000     430.00000000     430.00000000     430.00000000     430.00000000     430.00000000     430.00000000     430.00000000     430.00000000     430.00000000     430.00000000     430.00000000     430.00000000     430.00000000     430.00000000     430.00000000
       430.00000000     430.00000000     430.00000000     430.00000000     430.00000000     430.00000000     430.00000000     430.00000000     430.00000000     430.00000000     430.00000000     430.00000000     430.00000000     430.00000000     430.00000000     430.00000000     430.00000000     430.00000000     430.00000000     430.00000000
       430.00000000     430.00000000     430.00000000     430.00000000     430.00000000     430.00000000     430.00000000     430.00000000     430.00000000     430.00000000     430.00000000     430.00000000     430.00000000     430.00000000     430.00000000     430.00000000     430.00000000     430.00000000     430.00000000     430.00000000
       430.00000000     430.00000000     430.00000000     430.00000000     430.00000000     430.00000000     430.00000000     430.00000000     430.00000000     430.00000000     430.00000000     430.00000000     430.00000000     430.00000000     430.00000000     430.00000000     430.00000000     430.00000000     430.00000000     430.00000000
       430.00000000     430.00000000     430.00000000     430.00000000     430.00000000     430.00000000     430.00000000     430.00000000     430.00000000     430.00000000     430.00000000     430.00000000     430.00000000     430.00000000     430.00000000     430.00000000     430.00000000     430.00000000     430.00000000     430.00000000
       430.00000000     430.00000000     430.00000000     430.00000000     430.00000000     430.00000000     430.00000000     430.00000000     430.00000000     430.00000000     430.00000000     430.00000000     430.00000000     430.00000000     430.00000000     430.00000000     430.00000000     430.00000000     430.00000000     430.00000000
       430.00000000     430.00000000     430.00000000     430.00000000     430.00000000     430.00000000     430.00000000     430.00000000     430.00000000     430.00000000     430.00000000     430.00000000     430.00000000     430.00000000     430.00000000     430.00000000     430.00000000     430.00000000     430.00000000     430.00000000
       430.00000000     430.00000000     430.00000000     430.00000000     430.00000000     430.00000000     430.00000000     430.00000000     430.00000000     430.00000000     430.00000000     430.00000000     430.00000000     430.00000000     430.00000000     430.00000000     430.00000000     430.00000000     430.00000000     430.00000000
       430.00000000     430.00000000     430.00000000     430.00000000     430.00000000     430.00000000     430.00000000     430.00000000     430.00000000     430.00000000     430.00000000     430.00000000     430.00000000     430.00000000     430.00000000     430.00000000     430.00000000     430.00000000     430.00000000     430.00000000
       430.00000000     430.00000000     430.00000000     430.00000000     430.00000000     430.00000000     430.00000000     430.00000000     430.00000000     430.00000000     430.00000000     430.00000000     430.00000000     430.00000000     430.00000000     430.00000000     430.00000000     430.00000000     430.00000000     430.00000000
       430.00000000     430.00000000     430.00000000     430.00000000     430.00000000     430.00000000     430.00000000     430.00000000     430.00000000     430.00000000     430.00000000     430.00000000     430.00000000     430.00000000     430.00000000     430.00000000     430.00000000     430.00000000     430.00000000     430.00000000
       430.00000000     430.00000000     430.00000000     430.00000000     430.00000000     430.00000000     430.00000000     430.00000000     430.00000000     430.00000000     430.00000000     430.00000000     430.00000000     430.00000000     430.00000000     430.00000000     430.00000000     430.00000000     430.00000000     430.00000000
       430.00000000     430.00000000     430.00000000     430.00000000     430.00000000     430.00000000     430.00000000     430.00000000     430.00000000     430.00000000     430.00000000     430.00000000     430.00000000     430.00000000     430.00000000     430.00000000     430.00000000     430.00000000     430.00000000     430.00000000
       430.00000000     430.00000000     430.00000000     430.00000000     430.00000000     430.00000000     430.00000000     430.00000000     430.00000000     430.00000000     430.00000000     430.00000000     430.00000000     430.00000000     430.00000000     430.00000000     430.00000000     430.00000000     430.00000000     430.00000000
       430.00000000     430.00000000     430.00000000     430.00000000     430.00000000     430.00000000     430.00000000     430.00000000     430.00000000     430.00000000     430.00000000     430.00000000     430.00000000     430.00000000     430.00000000     430.00000000     430.00000000     430.00000000     430.00000000     430.00000000
       430.00000000     430.00000000     430.00000000     430.00000000     430.00000000     430.00000000     430.00000000     430.00000000     430.00000000     430.00000000     430.00000000     430.00000000     430.00000000     430.00000000     430.00000000     430.00000000     430.00000000     430.00000000     430.00000000     430.00000000
       430.00000000     430.00000000     430.00000000     430.00000000     430.00000000     430.00000000     430.00000000     430.00000000     430.00000000     430.00000000     430.00000000     430.00000000     430.00000000     430.00000000     430.00000000     430.00000000     430.00000000     430.00000000     430.00000000     430.00000000
       430.00000000     430.00000000     430.00000000     430.00000000     430.00000000     430.00000000     430.00000000     430.00000000     430.00000000     430.00000000     430.00000000     430.00000000     430.00000000     430.00000000     430.00000000     430.00000000     430.00000000     430.00000000     430.00000000     430.00000000
       430.00000000     430.00000000     430.00000000     430.00000000     430.00000000     430.00000000     430.00000000     430.00000000     430.00000000     430.00000000     430.00000000     430.00000000     430.00000000     430.00000000     430.00000000     430.00000000     430.00000000     430.00000000     430.00000000     430.00000000
       430.00000000     430.00000000     430.00000000     430.00000000     430.00000000     430.00000000     430.00000000     430.00000000     430.00000000     430.00000000     430.00000000     430.00000000     430.00000000     430.00000000     430.00000000     430.00000000     430.00000000     430.00000000     430.00000000     430.00000000
       430.00000000     430.00000000     430.00000000     430.00000000     430.00000000     430.00000000     430.00000000     430.00000000     430.00000000     430.00000000     430.00000000     430.00000000     430.00000000     430.00000000     430.00000000     430.00000000     430.00000000     430.00000000     430.00000000     430.00000000
       430.00000000     430.00000000     430.00000000     430.00000000     430.00000000     430.00000000     430.00000000     430.00000000     430.00000000     430.00000000     430.00000000     430.00000000     430.00000000     430.00000000     430.00000000     430.00000000     430.00000000     430.00000000     430.00000000     430.00000000
       430.00000000     430.00000000     430.00000000     430.00000000     430.00000000     430.00000000     430.00000000     430.00000000     430.00000000     430.00000000     430.00000000     430.00000000     430.00000000     430.00000000     430.00000000     430.00000000     430.00000000     430.00000000     430.00000000     430.00000000
       430.00000000     430.00000000     430.00000000     430.00000000     430.00000000     430.00000000     430.00000000     430.00000000     430.00000000     430.00000000     430.00000000     430.00000000     430.00000000     430.00000000     430.00000000     430.00000000     430.00000000     430.00000000     430.00000000     430.00000000
       430.00000000     430.00000000     430.00000000     430.00000000     430.00000000     430.00000000     430.00000000     430.00000000     430.00000000     430.00000000     430.00000000     430.00000000     430.00000000     430.00000000     430.00000000     430.00000000     430.00000000     430.00000000     430.00000000     430.00000000
       430.00000000     430.00000000     430.00000000     430.00000000     430.00000000     430.00000000     430.00000000     430.00000000     430.00000000     430.00000000     430.00000000     430.00000000     430.00000000     430.00000000     430.00000000     430.00000000     430.00000000     430.00000000     430.00000000     430.00000000
       430.00000000     430.00000000     430.00000000     430.00000000     430.00000000     430.00000000     430.00000000     430.00000000     430.00000000     430.00000000     430.00000000     430.00000000     430.00000000     430.00000000     430.00000000     430.00000000     430.00000000     430.00000000     430.00000000     430.00000000
       430.00000000     430.00000000     430.00000000     430.00000000     430.00000000     430.00000000     430.00000000     430.00000000     430.00000000     430.00000000     430.00000000     430.00000000     430.00000000     430.00000000     430.00000000     430.00000000     430.00000000     430.00000000     430.00000000     430.00000000
       430.00000000     430.00000000     430.00000000     430.00000000     430.00000000     430.00000000     430.00000000     430.00000000     430.00000000     430.00000000     430.00000000     430.00000000     430.00000000     430.00000000     430.00000000     430.00000000     430.00000000     430.00000000     430.00000000     430.00000000
       430.00000000     430.00000000     430.00000000     430.00000000     430.00000000     430.00000000     430.00000000     430.00000000     430.00000000     430.00000000     430.00000000     430.00000000     430.00000000     430.00000000     430.00000000     430.00000000     430.00000000     430.00000000     430.00000000     430.00000000
       430.00000000     430.00000000     430.00000000     430.00000000     430.00000000     430.00000000     430.00000000     430.00000000     430.00000000     430.00000000     430.00000000     430.00000000     430.00000000     430.00000000     430.00000000     430.00000000     430.00000000     430.00000000     430.00000000     430.00000000
       430.00000000     430.00000000     430.00000000     430.00000000     430.00000000     430.00000000     430.00000000     430.00000000     430.00000000     430.00000000     430.00000000     430.00000000     430.00000000     430.00000000     430.00000000     430.00000000     430.00000000     430.00000000     430.00000000     430.00000000
       430.00000000     430.00000000     430.00000000     430.00000000     430.00000000     430.00000000     430.00000000     430.00000000     430.00000000     430.00000000     430.00000000     430.00000000     430.00000000     430.00000000     430.00000000     430.00000000     430.00000000     430.00000000     430.00000000     430.00000000
       430.00000000     430.00000000     430.00000000     430.00000000     430.00000000     430.00000000     430.00000000     430.00000000     430.00000000     430.00000000     430.00000000     430.00000000     430.00000000     430.00000000     430.00000000     430.00000000     430.00000000     430.00000000     430.00000000     430.00000000
       430.00000000     430.00000000     430.00000000     430.00000000     430.00000000     430.00000000     430.00000000     430.00000000     430.00000000     430.00000000     430.00000000     430.00000000     430.00000000     430.00000000     430.00000000     430.00000000     430.00000000     430.00000000     430.00000000     430.00000000
       430.00000000     430.00000000     430.00000000     430.00000000     430.00000000     430.00000000     430.00000000     430.00000000     430.00000000     430.00000000     430.00000000     430.00000000     430.00000000     430.00000000     430.00000000     430.00000000     430.00000000     430.00000000     430.00000000     430.00000000
       430.00000000     430.00000000     430.00000000     430.00000000     430.00000000     430.00000000     430.00000000     430.00000000     430.00000000     430.00000000     430.00000000     430.00000000     430.00000000     430.00000000     430.00000000     430.00000000     430.00000000     430.00000000     430.00000000     430.00000000
       430.00000000     430.00000000     430.00000000     430.00000000     430.00000000     430.00000000     430.00000000     430.00000000     430.00000000     430.00000000     430.00000000     430.00000000     430.00000000     430.00000000     430.00000000     430.00000000     430.00000000     430.00000000     430.00000000     430.00000000
       430.00000000     430.00000000     430.00000000     430.00000000     430.00000000     430.00000000     430.00000000     430.00000000     430.00000000     430.00000000     430.00000000     430.00000000     430.00000000     430.00000000     430.00000000     430.00000000     430.00000000     430.00000000     430.00000000     430.00000000
       430.00000000     430.00000000     430.00000000     430.00000000     430.00000000     430.00000000     430.00000000     430.00000000     430.00000000     430.00000000     430.00000000     430.00000000     430.00000000     430.00000000     430.00000000     430.00000000     430.00000000     430.00000000     430.00000000     430.00000000
       430.00000000     430.00000000     430.00000000     430.00000000     430.00000000     430.00000000     430.00000000     430.00000000     430.00000000     430.00000000     430.00000000     430.00000000     430.00000000     430.00000000     430.00000000     430.00000000     430.00000000     430.00000000     430.00000000     430.00000000
       430.00000000     430.00000000     430.00000000     430.00000000     430.00000000     430.00000000     430.00000000     430.00000000     430.00000000     430.00000000     430.00000000     430.00000000     430.00000000     430.00000000     430.00000000     430.00000000     430.00000000     430.00000000     430.00000000     430.00000000
       430.00000000     430.00000000     430.00000000     430.00000000     430.00000000     430.00000000     430.00000000     430.00000000     430.00000000     430.00000000     430.00000000     430.00000000     430.00000000     430.00000000     430.00000000     430.00000000     430.00000000     430.00000000     430.00000000     430.00000000
       430.00000000     430.00000000     430.00000000     430.00000000     430.00000000     430.00000000     430.00000000     430.00000000     430.00000000     430.00000000     430.00000000     430.00000000     430.00000000     430.00000000     430.00000000     430.00000000     430.00000000     430.00000000     430.00000000     430.00000000
       430.00000000     430.00000000     430.00000000     430.00000000     430.00000000     430.00000000     430.00000000     430.00000000     430.00000000     430.00000000     430.00000000     430.00000000     430.00000000     430.00000000     430.00000000     430.00000000     430.00000000     430.00000000     430.00000000     430.00000000
       430.00000000     430.00000000     430.00000000     430.00000000     430.00000000     430.00000000     430.00000000     430.00000000     430.00000000     430.00000000     430.00000000     430.00000000     430.00000000     430.00000000     430.00000000     430.00000000     430.00000000     430.00000000     430.00000000     430.00000000
       430.00000000     430.00000000     430.00000000     430.00000000     430.00000000     430.00000000     430.00000000     430.00000000     430.00000000     430.00000000     430.00000000     430.00000000     430.00000000     430.00000000     430.00000000     430.00000000     430.00000000     430.00000000     430.00000000     430.00000000
       430.00000000     430.00000000     430.00000000     430.00000000     430.00000000     430.00000000     430.00000000     430.00000000     430.00000000     430.00000000     430.00000000     430.00000000     430.00000000     430.00000000     430.00000000     430.00000000     430.00000000     430.00000000     430.00000000     430.00000000
       430.00000000     430.00000000     430.00000000     430.00000000     430.00000000     430.00000000     430.00000000     430.00000000     430.00000000     430.00000000     430.00000000     430.00000000     430.00000000     430.00000000     430.00000000     430.00000000     430.00000000     430.00000000     430.00000000     430.00000000
       430.00000000     430.00000000     430.00000000     430.00000000     430.00000000     430.00000000     430.00000000     430.00000000     430.00000000     430.00000000     430.00000000     430.00000000     430.00000000     430.00000000     430.00000000     430.00000000     430.00000000     430.00000000     430.00000000     430.00000000
       430.00000000     430.00000000     430.00000000     430.00000000     430.00000000     430.00000000     430.00000000     430.00000000     430.00000000     430.00000000     430.00000000     430.00000000     430.00000000     430.00000000     430.00000000     430.00000000     430.00000000     430.00000000     430.00000000     430.00000000
       430.00000000     430.00000000     430.00000000     430.00000000     430.00000000     430.00000000     430.00000000     430.00000000     430.00000000     430.00000000     430.00000000     430.00000000     430.00000000     430.00000000     430.00000000     430.00000000     430.00000000     430.00000000     430.00000000     430.00000000
       430.00000000     430.00000000     430.00000000     430.00000000     430.00000000     430.00000000     430.00000000     430.00000000     430.00000000     430.00000000     430.00000000     430.00000000     430.00000000     430.00000000     430.00000000     430.00000000     430.00000000     430.00000000     430.00000000     430.00000000
       430.00000000     430.00000000     430.00000000     430.00000000     430.00000000     430.00000000     430.00000000     430.00000000     430.00000000     430.00000000     430.00000000     430.00000000     430.00000000     430.00000000     430.00000000     430.00000000     430.00000000     430.00000000     430.00000000     430.00000000
       430.00000000     430.00000000     430.00000000     430.00000000     430.00000000     430.00000000     430.00000000     430.00000000     430.00000000     430.00000000     430.00000000     430.00000000     430.00000000     430.00000000     430.00000000     430.00000000     430.00000000     430.00000000     430.00000000     430.00000000
       430.00000000     430.00000000     430.00000000     430.00000000     430.00000000     430.00000000     430.00000000     430.00000000     430.00000000     430.00000000     430.00000000     430.00000000     430.00000000     430.00000000     430.00000000     430.00000000     430.00000000     430.00000000     430.00000000     430.00000000
       430.00000000     430.00000000     430.00000000     430.00000000     430.00000000     430.00000000     430.00000000     430.00000000     430.00000000     430.00000000     430.00000000     430.00000000     430.00000000     430.00000000     430.00000000     430.00000000     430.00000000     430.00000000     430.00000000     430.00000000
       430.00000000     430.00000000     430.00000000     430.00000000     430.00000000     430.00000000     430.00000000     430.00000000     430.00000000     430.00000000     430.00000000     430.00000000     430.00000000     430.00000000     430.00000000     430.00000000     430.00000000     430.00000000     430.00000000     430.00000000
       430.00000000     430.00000000     430.00000000     430.00000000     430.00000000     430.00000000     430.00000000     430.00000000     430.00000000     430.00000000     430.00000000     430.00000000     430.00000000     430.00000000     430.00000000     430.00000000     430.00000000     430.00000000     430.00000000     430.00000000
       430.00000000     430.00000000     430.00000000     430.00000000     430.00000000     430.00000000     430.00000000     430.00000000     430.00000000     430.00000000     430.00000000     430.00000000     430.00000000     430.00000000     430.00000000     430.00000000     430.00000000     430.00000000     430.00000000     430.00000000
       430.00000000     430.00000000     430.00000000     430.00000000     430.00000000     430.00000000     430.00000000     430.00000000     430.00000000     430.00000000     430.00000000     430.00000000     430.00000000     430.00000000     430.00000000     430.00000000     430.00000000     430.00000000     430.00000000     430.00000000
       430.00000000     430.00000000     430.00000000     430.00000000     430.00000000     430.00000000     430.00000000     430.00000000     430.00000000     430.00000000     430.00000000     430.00000000     430.00000000     430.00000000     430.00000000     430.00000000     430.00000000     430.00000000     430.00000000     430.00000000
       430.00000000     430.00000000     430.00000000     430.00000000     430.00000000     430.00000000     430.00000000     430.00000000     430.00000000     430.00000000     430.00000000     430.00000000     430.00000000     430.00000000     430.00000000     430.00000000     430.00000000     430.00000000     430.00000000     430.00000000
       430.00000000     430.00000000     430.00000000     430.00000000     430.00000000     430.00000000     430.00000000     430.00000000     430.00000000     430.00000000     430.00000000     430.00000000     430.00000000     430.00000000     430.00000000     430.00000000     430.00000000     430.00000000     430.00000000     430.00000000
       430.00000000     430.00000000     430.00000000     430.00000000     430.00000000     430.00000000     430.00000000     430.00000000     430.00000000     430.00000000     430.00000000     430.00000000     430.00000000     430.00000000     430.00000000     430.00000000     430.00000000     430.00000000     430.00000000     430.00000000
       430.00000000     430.00000000     430.00000000     430.00000000     430.00000000     430.00000000     430.00000000     430.00000000     430.00000000     430.00000000     430.00000000     430.00000000     430.00000000     430.00000000     430.00000000     430.00000000     430.00000000     430.00000000     430.00000000     430.00000000
       430.00000000     430.00000000     430.00000000     430.00000000     430.00000000     430.00000000     430.00000000     430.00000000     430.00000000     430.00000000     430.00000000     430.00000000     430.00000000     430.00000000     430.00000000     430.00000000     430.00000000     430.00000000     430.00000000     430.00000000
       430.00000000     430.00000000     430.00000000     430.00000000     430.00000000     430.00000000     430.00000000     430.00000000     430.00000000     430.00000000     430.00000000     430.00000000     430.00000000     430.00000000     430.00000000     430.00000000     430.00000000     430.00000000     430.00000000     430.00000000
       430.00000000     430.00000000     430.00000000     430.00000000     430.00000000     430.00000000     430.00000000     430.00000000     430.00000000     430.00000000     430.00000000     430.00000000     430.00000000     430.00000000     430.00000000     430.00000000     430.00000000     430.00000000     430.00000000     430.00000000
       430.00000000     430.00000000     430.00000000     430.00000000     430.00000000     430.00000000     430.00000000     430.00000000     430.00000000     430.00000000     430.00000000     430.00000000     430.00000000     430.00000000     430.00000000     430.00000000     430.00000000     430.00000000     430.00000000     430.00000000
       430.00000000     430.00000000     430.00000000     430.00000000     430.00000000     430.00000000     430.00000000     430.00000000     430.00000000     430.00000000     430.00000000     430.00000000     430.00000000     430.00000000     430.00000000     430.00000000     430.00000000     430.00000000     430.00000000     430.00000000
       430.00000000     430.00000000     430.00000000     430.00000000     430.00000000     430.00000000     430.00000000     430.00000000     430.00000000     430.00000000     430.00000000     430.00000000     430.00000000     430.00000000     430.00000000     430.00000000     430.00000000     430.00000000     430.00000000     430.00000000
       430.00000000     430.00000000     430.00000000     430.00000000     430.00000000     430.00000000     430.00000000     430.00000000     430.00000000     430.00000000     430.00000000     430.00000000     430.00000000     430.00000000     430.00000000     430.00000000     430.00000000     430.00000000     430.00000000     430.00000000
       430.00000000     430.00000000     430.00000000     430.00000000     430.00000000     430.00000000     430.00000000     430.00000000     430.00000000     430.00000000     430.00000000     430.00000000     430.00000000     430.00000000     430.00000000     430.00000000     430.00000000     430.00000000     430.00000000     430.00000000