# File generated by Flopy version 3.3.5 on 06/01/2022 at 10:10:45.
BEGIN options
  LENGTH_UNITS  meters
#  XORIGIN  4.17840000E+05
#  YORIGIN  7.66638000E+06
#  ANGROT       0.00000000
END options

BEGIN dimensions
  NLAY  1
  NCPL  2238
  NVERT  2566
END dimensions

BEGIN griddata
  top
    INTERNAL  FACTOR  1.0
       392.88632202     396.81036377     398.63214111     394.24334717     391.38446045     391.51971436     398.00024414     391.81042480     393.79235840     398.36581421     393.78091431     398.07540894     419.76300049     402.90557861     389.01849365     390.17895508     404.85467529     388.48358154     398.19338989     394.01959229
       390.84075928     396.65472412     417.69879150     395.38531494     402.02868652     401.78860474     394.22567749     390.65704346     399.43603516     392.75500488     391.43560791     389.41207886     388.86306763     397.86535645     401.35629272     394.79891968     402.16894531     407.46545410     402.25506592     409.23287964
       405.28927612     398.72915649     392.22326660     393.32571411     403.59893799     399.67880249     402.63372803     413.94494629     415.54309082     405.70538330     410.43112183     417.21652222     421.40438843     416.41146851     414.45523071     413.51361084     417.86416626     412.85873413     410.54110718     399.89807129
       394.95797729     411.11849976     434.93218994     417.11059570     416.57681274     422.16027832     415.82266235     425.42785645     428.76394653     426.72616577     423.20617676     419.79504395     425.14044189     421.68194580     423.46401978     411.18814087     402.73178101     398.57550049     399.36822510     425.59811401
       434.01480103     420.16357422     437.43298340     433.73315430     416.30194092     421.63159180     419.48965454     433.61755371     439.41284180     432.25152588     432.36148071     437.54187012     435.12475586     429.98010254     420.37667847     416.53286743     413.21249390     405.76159668     399.17810059     413.14636230
       432.52783203     433.35406494     423.72552490     425.00854492     421.26467896     424.44915771     419.06640625     408.00259399     418.21286011     407.66638184     407.25817871     441.24700928     441.98776245     444.64910889     444.07562256     442.70568848     439.07272339     445.61294556     435.90350342     435.89868164
       422.51904297     411.03253174     407.56344604     409.68075562     409.24212646     409.86434937     412.15502930     406.81762695     401.84878540     408.18099976     408.84188843     402.05102539     400.94180298     402.32952881     420.68475342     399.62951660     401.63928223     415.18179321     402.62789917     402.45117188
       403.01153564     401.47442627     398.69781494     397.90246582     395.23709106     395.29244995     400.06314087     399.83746338     396.77059937     398.04641724     399.70974731     399.94790649     399.72756958     402.77209473     400.20980835     401.17355347     400.75915527     401.60626221     403.54669189     403.15264893
       401.89398193     402.38302612     403.76556396     403.86065674     402.32174683     402.63519287     403.25091553     403.94461060     403.87500000     404.29647827     404.24322510     404.48022461     404.57946777     404.34133911     447.54055786     450.76666260     448.30407715     445.90222168     453.46990967     455.27313232
       449.19598389     452.17507935     454.65652466     470.87310791     473.72793579     447.65747070     424.27020264     418.65795898     419.77474976     413.69137573     421.53439331     425.10247803     412.11990356     411.79107666     418.81088257     414.07894897     405.91809082     411.88433838     413.13107300     430.39749146
       419.00894165     407.04727173     428.20541382     413.14309692     394.96032715     395.02069092     401.00418091     397.18685913     398.64291382     404.57653809     400.75396729     406.10552979     401.70959473     398.96200562     403.98886108     401.93499756     403.86648560     411.07458496     406.64587402     415.09729004
       405.86923218     411.78045654     413.44165039     417.07241821     416.75607300     421.44525146     429.72552490     425.01113892     426.45001221     425.42813110     409.32189941     406.08169556     418.22351074     411.95153809     404.79080200     405.00451660     408.66558838     407.15377808     417.66238403     415.56906128
       422.21362305     419.66876221     411.25668335     410.17147827     413.90264893     412.81277466     417.35256958     420.46432495     422.07315063     421.66708374     420.18338013     417.74453735     420.01025391     419.20428467     420.49429321     421.94381714     422.93820190     423.55581665     420.94027710     423.27746582
       421.97647095     415.00610352     419.92916870     418.46096802     419.38311768     419.63336182     420.60964966     420.21856689     421.29483032     420.90170288     423.09893799     423.50643921     405.88073730     404.87155151     408.11547852     408.72122192     404.61987305     405.07720947     407.66375732     406.92385864
       412.00875854     413.45812988     414.93154907     421.01260376     412.56683350     411.64700317     422.47357178     418.09667969     405.05880737     405.31912231     406.62921143     406.33016968     405.21426392     405.26370239     406.42031860     406.50286865     409.56704712     408.79049683     413.97467041     411.71405029
       408.33847046     408.02990723     410.29779053     410.15826416     418.60693359     421.55807495     418.18212891     423.57827759     421.26516724     427.09286499     423.80023193     423.19750977     428.74063110     427.17163086     424.42251587     428.59555054     424.88009644     422.91976929     420.60479736     423.00265503
       425.85687256     423.57669067     423.86242676     423.87762451     424.35134888     425.24322510     429.85598755     432.24151611     431.20187378     432.12155151     421.40127563     425.59332275     422.17984009     423.51156616     429.19567871     429.51052856     428.09173584     427.72784424     428.16342163     425.38912964
       427.08776855     426.36239624     425.16918945     425.81399536     424.49014282     425.19158936     426.46884155     426.57849121     425.92367554     426.38986206     422.51766968     423.56295776     423.83770752     424.43096924     424.87939453     424.88476562     425.00265503     425.50546265     425.44363403     427.54449463
       425.42657471     428.40396118     426.19232178     427.20660400     428.83102417     428.11251831     429.00646973     424.09307861     423.92160034     425.54901123     424.90386963     424.72372437     426.01144409     426.59069824     426.75668335     426.80590820     426.91610718     427.49957275     428.36746216     428.08587646
       428.08831787     429.48211670     429.00570679     428.12155151     430.54650879     428.65325928     429.41299438     428.39312744     430.03631592     429.52301025     430.72317505     430.64965820     430.60861206     431.55133057     432.72558594     429.81323242     431.34622192     429.99340820     431.83004761     433.01507568
       431.77056885     431.86022949     434.11062622     434.12677002     418.78860474     414.18136597     428.79354858     418.71258545     412.50994873     413.24566650     414.69479370     415.52978516     428.59341431     425.19219971     429.22549438     424.36352539     417.37628174     417.09936523     421.82675171     418.62261963
       404.51293945     404.85980225     406.25723267     405.84121704     404.77041626     407.48956299     407.64434814     410.99349976     410.74914551     407.45877075     406.26989746     410.60940552     409.14093018     404.84271240     406.06295776     406.90631104     415.62298584     418.37310791     419.82678223     422.77401733
       417.26681519     414.14776611     424.96710205     419.76095581     419.86996460     424.26007080     422.08728027     426.64599609     432.69812012     428.91757202     430.96176147     439.87939453     412.05841064     409.96798706     421.42764282     418.30227661     426.43258667     421.93566895     416.09024048     405.80590820
       405.61251831     411.84555054     409.58053589     415.28973389     418.05126953     409.34429932     405.48379517     409.84576416     401.80722046     397.35440063     394.74609375     394.12808228     406.28912354     406.37936401     405.90979004     459.72406006     453.86779785     460.13311768     456.16635132     457.57977295
       458.03869629     477.38186646     465.74899292     523.44238281     493.35971069     464.11251831     439.88409424     432.04562378     425.69213867     427.70968628     436.27816772     431.55404663     423.00637817     420.89535522     428.49307251     429.12213135     414.16778564     427.94366455     419.36923218     430.39990234
       432.55917358     414.79159546     422.35824585     411.43325806     407.85781860     406.80523682     409.30926514     414.13790894     409.33712769     413.47540283     416.55346680     411.85235596     411.68585205     424.22793579     414.10494995     416.54849243     423.00286865     415.47186279     417.78134155     415.68338013
       414.30389404     419.61550903     419.60919189     414.94021606     417.10778809     410.30966187     411.43774414     412.89352417     411.32077026     411.92611694     419.42388916     421.92861938     417.78973389     421.20303345     430.67807007     431.59539795     427.66665649     430.67346191     415.85455322     419.59521484
       413.72265625     418.23388672     426.70758057     425.95449829     421.01843262     422.24224854     411.85830688     415.34201050     410.70144653     418.25787354     416.09597778     416.97399902     415.61029053     418.14587402     419.50390625     422.03045654     417.66946411     420.06072998     417.32986450     419.74856567
       419.18029785     417.18524170     415.40109253     428.33291626     426.93078613     430.44863892     428.68505859     434.15997314     431.13183594     436.81365967     432.30487061     435.35601807     436.26351929     438.90927124     436.15780640     434.67459106     439.16827393     435.47512817     439.98037720     439.16976929
       436.22222900     438.89868164     436.05920410     429.73709106     433.24557495     425.00717163     428.02862549     436.03863525     438.46331787     437.39202881     436.69921875     435.16094971     430.42749023     434.72363281     435.72921753     432.94226074     434.61260986     432.36419678     429.34243774     433.87234497
       429.91702271     426.03802490     424.32601929     428.19116211     425.34237671     434.00207520     431.96612549     430.18371582     431.74493408     429.91955566     435.52239990     433.35617065     436.13137817     433.83673096     431.26730347     430.09982300     431.25552368     430.03909302     428.47668457     427.10931396
       427.67294312     427.03283691     425.60156250     428.20843506     427.53283691     427.86196899     426.78295898     425.77615356     424.68728638     425.47772217     424.54342651     422.65853882     421.06768799     423.11422729     421.50253296     420.45431519     423.55703735     421.39889526     423.41140747     421.90493774
       421.64974976     436.15194702     434.11108398     434.14398193     433.41665649     431.34146118     429.98599243     430.85104370     429.48187256     433.94033813     433.53778076     434.56692505     434.65969849     431.80813599     430.20739746     431.82034302     430.72030640     427.94729614     426.85095215     428.30572510
       427.18878174     425.62741089     424.48608398     425.40588379     425.16952515     428.52084351     428.09100342     429.46624756     428.06445312     427.24450684     425.93856812     427.40820312     426.27206421     435.30291748     432.44619751     434.85647583     434.52349854     430.83169556     428.13909912     434.24850464
       431.08822632     422.32058716     422.27725220     423.70941162     422.75851440     423.08276367     423.69027710     423.08810425     426.62933350     423.93444824     423.56927490     423.74862671     423.65325928     424.31893921     423.80163574     426.88125610     420.37149048     426.19110107     431.52169800     434.91998291
       426.64236450     432.69616699     417.75347900     419.48257446     415.27001953     416.44024658     425.21011353     426.05313110     421.04342651     422.68743896     433.90969849     433.97775269     429.98638916     432.82363892     429.80847168     431.81954956     431.93612671     430.75790405     433.51962280     432.41955566
       426.18283081     424.59872437     427.24423218     425.06851196     424.64303589     425.39767456     425.06185913     423.94384766     424.21047974     424.17724609     424.68884277     425.47558594     424.55090332     425.52273560     425.10754395     426.42114258     425.94458008     426.55603027     426.75708008     427.22265625
       428.79534912     427.50201416     429.07821655     428.15646362     426.38107300     426.32189941     427.36468506     427.17721558     431.03732300     429.24737549     432.26672363     430.98272705     428.01956177     428.48953247     429.77609253     430.16183472     426.52114868     427.95718384     427.42883301     429.72817993
       428.17504883     428.04547119     429.67190552     430.00933838     428.45776367     430.93218994     430.49240112     431.70648193     431.26232910     432.18167114     432.23999023     433.25195312     433.71902466     434.17742920     433.89434814     435.17596436     436.96948242     428.33203125     431.53967285     434.57388306
       432.00625610     431.64157104     434.57229614     433.67276001     439.07171631     436.92926025     431.94232178     433.09127808     434.16571045     434.29299927     434.22396851     434.54638672     435.08267212     435.73538208     436.83197021     436.72451782     439.88580322     437.37646484     427.24481201     431.81112671
       423.89889526     428.24270630     431.39208984     432.43847656     434.30975342     441.78961182     425.24942017     428.98529053     425.61920166     427.18460083     426.68203735     429.73526001     432.12292480     433.57281494     439.89739990     434.89193726     439.21673584     431.29107666     430.77252197     436.86862183
       433.38577271     429.15359497     420.61209106     426.77111816     423.32958984     439.66546631     431.89605713     442.54644775     432.43981934     426.51278687     430.26324463     425.97631836     423.59674072     428.56854248     432.34234619     430.22213745     433.62655640     435.75695801     430.49124146     432.66955566
       431.94866943     433.64141846     433.92019653     432.83648682     432.82714844     433.73724365     432.91909790     432.63125610     428.67303467     431.30096436     431.86981201     425.31976318     427.13641357     434.39529419     430.33499146     433.75765991     430.97332764     424.86703491     431.84173584     424.34774780
       421.49893188     424.88784790     419.14483643     419.97174072     434.81164551     431.93750000     429.72354126     428.36486816     425.21868896     421.39392090     422.53604126     418.13327026     424.60186768     422.09945679     418.75088501     417.87231445     418.71960449     417.55783081     423.08505249     419.77719116
       430.68310547     429.64947510     430.54025269     421.11431885     420.15533447     403.00622559     413.99557495     407.91610718     421.41760254     426.11627197     411.84634399     412.50497437     413.05197144     404.35900879     408.57031250     403.41738892     398.09228516     393.87515259     396.23669434     395.75219727
       391.73474121     400.30313110     389.73416138     391.30972290     407.30255127     421.44018555     403.73672485     401.86068726     416.36102295     418.81985474     402.74304199     413.42938232     403.13790894     421.37527466     395.46179199     403.09494019     419.58483887     416.61578369     431.27789307     421.38973999
       418.32312012     413.00897217     419.64514160     461.76040649     461.15603638     466.06213379     465.04733276     465.68838501     476.19174194     524.68762207     515.00616455     506.64666748     511.46856689     475.23263550     454.72863770     450.90664673     440.82424927     436.16433716     443.68975830     440.70043945
       431.52008057     432.31216431     436.20230103     437.22836304     427.61300659     434.14703369     430.90380859     437.33819580     414.79095459     405.09042358     419.72943115     408.19201660     405.43927002     408.38732910     408.99114990     410.06887817     412.75524902     408.90878296     410.24517822     407.74157715
       418.42276001     411.39196777     409.82156372     416.48901367     413.40728760     412.98751831     410.05667114     408.93136597     412.72195435     407.80297852     408.67837524     407.66195679     411.14257812     407.68688965     408.84561157     407.54983521     406.97579956     406.63992310     413.32452393     415.37319946
       409.61770630     412.45687866     417.48367310     421.09310913     416.44024658     424.99838257     408.54244995     409.97677612     406.79940796     407.85736084     415.58990479     422.12649536     410.52548218     415.10513306     423.49035645     428.46847534     425.05194092     423.66729736     433.16146851     433.22497559
       426.67721558     428.42935181     421.27374268     418.47555542     420.99478149     416.26773071     421.63528442     422.50799561     415.70455933     416.12411499     408.60879517     408.36950684     411.15966797     405.89779663     408.91119385     408.15673828     406.50070190     415.92453003     415.53457642     410.69079590
       411.95562744     412.52960205     411.79388428     411.43457031     411.64642334     406.55758667     406.08380127     427.88830566     422.36166382     424.87841797     419.57601929     416.35266113     414.55792236     415.05755615     412.00360107     425.13751221     418.65472412     417.19738770     415.33877563     415.83227539
       410.21694946     409.78924561     406.00622559     414.90930176     414.74121094     411.14004517     411.59228516     418.42294312     413.20413208     417.39126587     410.89846802     407.50244141     408.33251953     405.36770630     405.34790039     408.06683350     410.40103149     408.18048096     408.45916748     404.70770264
       408.43847656     404.01623535     404.69985962     405.27206421     405.65039062     409.29043579     404.00079346     400.45874023     405.96398926     403.37200928     407.93295288     406.86517334     403.58758545     407.15652466     408.17337036     405.81542969     407.79220581     404.49014282     402.85162354     400.86914062
       403.32998657     400.25524902     403.64050293     404.76876831     400.16531372     403.83355713     397.64416504     398.12927246     405.37106323     394.83071899     395.15878296     395.11788940     389.52951050     394.50222778     407.85711670     395.19018555     390.66415405     386.35125732     398.44720459     397.88204956
       394.35485840     387.35232544     384.30404663     398.09710693     405.31503296     419.56823730     393.55728149     407.57315063     402.55233765     410.56176758     425.18457031     385.91241455     408.13113403     393.43939209     390.82498169     480.86071777     487.33319092     474.68124390     484.25036621     496.40090942
       491.11975098     530.82556152     516.27911377     495.72631836     473.96057129     477.09036255     499.37841797     490.61575317     466.04718018     458.13796997     462.82714844     483.10955811     463.03890991     451.33691406     474.32998657     471.52798462     443.79351807     440.94424438     441.99423218     441.56549072
       426.18948364     421.08837891     426.91091919     420.52139282     414.32321167     411.92745972     422.98355103     413.68188477     409.40316772     409.71527100     410.38598633     410.53976440     407.78988647     408.48370361     409.44546509     408.97354126     412.74948120     411.28704834     407.98547363     406.90588379
       408.10665894     408.85867310     406.17349243     405.35867310     408.43811035     406.68255615     412.08288574     408.96148682     413.22427368     409.16262817     408.80999756     407.95745850     408.93618774     408.19113159     404.70202637     404.01159668     405.65402222     404.32904053     405.62612915     407.22436523
       404.31225586     403.10879517     406.83459473     407.42263794     408.63507080     405.65066528     406.26098633     410.30023193     405.11724854     405.58413696     402.04141235     405.77770996     402.44842529     401.14813232     400.07400513     402.95852661     400.18908691     401.49990845     408.06723022     402.41189575
       405.88409424     392.88339233     395.79809570     392.00546265     404.84588623     393.67187500     388.80792236     410.00866699     395.99542236     389.88790894     380.98495483     393.54052734     384.15042114     381.28509521     377.86489868     397.53698730     397.62826538     408.96615601     391.62478638     383.05609131
       376.29690552     370.54675293     380.55755615     393.37435913     409.98660278     402.07766724     425.70736694     415.45010376     416.87100220     414.32232666     412.83517456     400.57479858     417.89834595     416.03796387     388.93045044     385.13287354     379.74414062     370.10241699     378.97799683     385.68560791
       377.60021973     482.51757812     485.29959106     488.76089478     482.08447266     491.69427490     494.54809570     501.81356812     551.64868164     519.70111084     510.64639282     490.91229248     516.15313721     512.79333496     484.29748535     516.79620361     471.54617310     451.98861694     473.93472290     454.02444458
       440.93350220     445.06420898     443.34564209     436.70907593     432.47937012     416.13555908     431.24185181     423.76919556     417.60116577     416.24691772     419.31002808     418.40313721     414.68258667     413.45639038     417.13613892     415.87023926     412.34109497     409.68301392     415.77035522     415.09811401
       407.97134399     407.04544067     410.49713135     408.80847168     404.65136719     402.48727417     407.07595825     404.02685547     401.69116211     401.48330688     401.99938965     399.92309570     396.97497559     402.54992676     398.09298706     397.36157227     409.37127686     409.35415649     394.36636353     392.97640991
       398.12133789     389.47540283     393.59255981     388.45739746     382.42156982     377.33343506     368.19787598     368.49819946     369.36706543     371.01071167     397.13482666     378.66125488     416.35702515     382.30212402     366.10870361     368.43063354     364.07748413     353.48336792     349.24026489     347.79605103
       339.62805176     494.78781128     498.11245728     509.28598022     505.14456177     514.92425537     530.42083740     531.18341064     509.21887207     508.45770264     524.78796387     534.70178223     502.62765503     508.92468262     472.41046143     459.50631714     473.65856934     468.67434692     451.01049805     432.02474976
       450.01043701     437.77600098     428.64248657     427.30654907     435.32955933     424.75924683     421.45175171     422.66769409     423.23602295     421.56881714     419.79495239     419.72515869     420.66821289     419.79806519     416.61062622     414.89001465     416.69851685     414.01541138     413.65313721     410.46408081
       415.34127808     413.37271118     407.94479370     406.66812134     410.60479736     408.05346680     403.02114868     401.65066528     404.51013184     404.12893677     398.29455566     397.79180908     399.27819824     398.53134155     395.03826904     390.58193970     395.88739014     391.51263428     388.30624390     384.75576782
       376.21511841     372.87658691     368.93405151     364.82183838     359.79315186     356.55541992     363.35150146     378.19982910     367.31060791     346.79443359     346.38088989     341.68249512     343.75802612     339.25354004     334.06051636     337.36306763     334.88183594     330.92080688     513.43676758     531.28900146
       519.79034424     530.49530029     531.70977783     551.01293945     569.32519531     526.14416504     512.01489258     514.06512451     540.63708496     554.30480957     529.16619873     505.33233643     475.65979004     445.50952148     444.54623413     456.63375854     471.45135498     436.21163940     427.40304565     436.19644165
       430.72308350     425.93197632     424.69259644     428.94213867     426.06765747     426.37994385     420.55984497     425.94195557     421.72714233     418.37094116     417.95425415     419.66320801     418.72631836     415.68148804     416.18640137     415.61322021     413.24343872     410.35617065     408.97521973     412.17172241
       411.57418823     406.40814209     404.22146606     407.74984741     404.61645508     402.04623413     400.54788208     402.26666260     399.64474487     397.57989502     394.05737305     399.63092041     393.51342773     390.60244751     386.93740845     381.22186279     375.65673828     369.63598633     366.75863647     360.83407593
       357.78628540     355.03018188     352.70602417     348.18206787     348.38952637     341.12164307     338.12167358     331.19076538     331.45233154     334.90527344     331.31784058     328.79290771     533.39739990     541.75238037     542.26757812     532.17321777     534.55450439     533.46582031     533.10998535     556.06030273
       528.89697266     512.72796631     499.95104980     479.68737793     468.92877197     469.43368530     434.82464600     431.09338379     428.65606689     433.23394775     430.35034180     427.50845337     425.11495972     427.61056519     423.82745361     422.81048584     420.16921997     421.00500488     421.92083740     417.21160889
       414.59863281     418.44232178     415.40133667     412.10314941     409.90188599     412.25378418     411.45632935     407.45272827     403.71539307     407.84060669     405.15740967     402.10589600     394.70690918     391.53814697     384.72058105     379.50259399     375.78817749     371.76644897     366.07986450     363.87219238
       363.65548706     357.30255127     355.18521118     348.92529297     342.10360718     340.41879272     340.29150391     332.32110596     329.34445190     326.73413086     329.49697876     327.36502075     324.92465210     566.58227539     536.48931885     531.37316895     514.08544922     518.82861328     555.31866455     576.41345215
       528.34094238     500.09417725     488.97839355     461.96469116     459.04421997     441.86978149     439.38812256     435.05679321     428.68417358     420.64819336     418.12396240     411.59497070     407.34442139     401.42544556     396.35198975     392.23474121     383.53570557     380.15029907     377.39407349     374.17083740
       373.66918945     367.05859375     362.40493774     359.10369873     354.26593018     352.22567749     345.37039185     338.15188599     333.23736572     331.03796387     326.46417236     323.08746338     327.26675415     329.61596680     331.49197388     329.67065430     335.93951416     522.69561768     504.06088257     506.37899780
       513.40173340     507.87149048     504.02676392     506.43469238     517.90429688     567.40185547     563.86248779     509.25234985     475.95758057     467.53878784     449.19851685     442.06695557     444.29025269     443.74087524     432.36364746     419.58972168     432.28259277     414.24734497     406.59930420     400.34033203
       395.05136108     390.20803833     386.82409668     382.73559570     380.34164429     378.72283936     375.16406250     370.52792358     365.75195312     359.59469604     357.79006958     350.52810669     347.39675903     341.83959961     336.46667480     330.66699219     330.41220093     341.58639526     345.16027832     332.96194458
       352.41085815     335.48162842     499.58337402     495.20538330     494.02734375     490.56030273     497.62686157     501.56607056     501.55206299     508.96713257     478.23068237     461.93579102     451.80636597     451.53842163     454.99450684     479.73742676     455.81539917     459.07748413     451.74176025     441.40917969
       418.43984985     401.21435547     393.93350220     394.07897949     391.83670044     389.13024902     386.31579590     382.97552490     380.24664307     375.15652466     368.72485352     364.86447144     355.95639038     350.40426636     346.61074829     341.66561890     339.34600830     340.80758667     360.57638550     345.37692261
       362.20260620     340.27700806     359.07904053     351.46981812     334.26812744     493.37661743     491.26153564     488.71926880     491.42739868     488.84027100     494.96627808     519.75244141     488.73333740     485.06704712     515.49035645     475.44305420     457.30239868     458.66885376     457.78604126     482.52316284
       452.84637451     452.96429443     474.02871704     444.76913452     422.29113770     421.52062988     399.69464111     400.21838379     397.16641235     393.01443481     390.31555176     384.36453247     381.08358765     376.83694458     376.29644775     364.70150757     359.25283813     352.76489258     349.05386353     343.48843384
       342.44607544     364.51531982     362.87396240     369.83288574     358.16744995     340.99270630     353.11270142     344.97552490     492.16400146     493.23037720     490.57730103     516.20581055     489.84982300     513.33044434     524.73480225     508.11642456     476.19152832     502.57940674     486.47079468     463.24487305