# File generated by Flopy version 3.3.5 on 05/31/2022 at 13:01:30.
BEGIN options
END options

BEGIN timing
  TDIS6  MySim2.tdis
END timing

BEGIN models
  gwf6  flow.nam  flow
END models

BEGIN exchanges
END exchanges

BEGIN solutiongroup  1
  ims6  MySim2.ims  flow
END solutiongroup  1

