# File generated by Flopy version 3.3.5 on 05/31/2022 at 13:01:30.
BEGIN options
  COMPLEXITY  complex
  CSV_OUTER_OUTPUT  FILEOUT  outer.csv
  CSV_INNER_OUTPUT  FILEOUT  inner.csv
END options

BEGIN nonlinear
  OUTER_DVCLOSE       0.01000000
  OUTER_MAXIMUM  500
END nonlinear

BEGIN linear
  INNER_MAXIMUM  600
  INNER_DVCLOSE       0.00100000
END linear

