# File generated by Flopy version 3.4.1 on 09/13/2023 at 20:19:01.
BEGIN options
END options

BEGIN timing
  TDIS6  MySim.tdis
END timing

BEGIN models
  gwf6  MyModel.nam  MyModel
END models

BEGIN exchanges
END exchanges

BEGIN solutiongroup  1
  ims6  MySim.ims  MyModel
END solutiongroup  1

