# File generated by Flopy version 3.4.1 on 09/13/2023 at 20:19:01.
BEGIN options
  SAVE_FLOWS
END options

BEGIN packages
  DIS6  MyModel.dis  dis
  IC6  MyModel.ic  ic
  NPF6  MyModel.npf  npf
  CHD6  MyModel.chd  chd_0
  OC6  MyModel.oc  oc
END packages

