# File generated by Flopy version 3.4.1 on 09/13/2023 at 20:19:01.
BEGIN options
  BUDGET  FILEOUT  MyModel.bud
  HEAD  FILEOUT  MyModel.hds
END options

BEGIN period  1
  SAVE  HEAD  ALL
  SAVE  BUDGET  ALL
END period  1

