# File generated by Flopy version 3.4.1 on 09/13/2023 at 20:19:01.
BEGIN options
END options

BEGIN dimensions
  NLAY  1
  NROW  10
  NCOL  10
END dimensions

BEGIN griddata
  delr
    CONSTANT       1.00000000
  delc
    CONSTANT       1.00000000
  top
    CONSTANT       1.00000000
  botm
    CONSTANT       0.00000000
END griddata

