# File generated by Flopy version 3.4.1 on 09/13/2023 at 20:19:01.
BEGIN options
END options

BEGIN dimensions
  MAXBOUND  2
END dimensions

BEGIN period  1
  1 1 1       1.00000000
  1 10 10       0.00000000
END period  1

