# File generated by Flopy version 3.4.1 on 09/13/2023 at 20:19:01.
BEGIN options
END options

BEGIN dimensions
  NPER  1
END dimensions

BEGIN perioddata
       1.00000000  1       1.00000000
END perioddata

